data_ReferenceDataBase/JZO
_audit_creation_method             Generated by GULP
_audit_author_name                 Salvador R. G. Balestra
_symmetry_space_group_name_H-M     'P 1             '
_symmetry_Int_Tables_number        1

loop_
_symmetry_equiv_pos_site_id
_symmetry_equiv_pos_as_xyz
   1     +x,+y,+z                
_cell_length_a                       43.1496
_cell_length_b                       43.1496
_cell_length_c                       24.9301
_cell_angle_alpha                   90.0000
_cell_angle_beta                    90.0000
_cell_angle_gamma                   90.0000

loop_
_atom_site_label
_atom_site_type_symbol
_atom_site_fract_x
_atom_site_fract_y
_atom_site_fract_z
_atom_site_charge
  Si     Si        0.249778875037670    0.110578389697618    0.620729458747731  0.0000
  Si     Si        0.191295960858270    0.022861797962324    0.678554179653959  0.0000
  Si     Si        0.095759535815549    0.023618385038545    0.787634417530647  0.0000
  Si     Si        0.061426235847047    0.501855795882972    0.623948270391490  0.0000
  Si     Si        0.121193987495353    0.023237883992792    0.673519101195846  0.0000
  Si     Si        0.036443569110003    0.559184670087121    0.566844259035749  0.0000
  Si     Si        0.344098748281008    0.056150207965702    0.555511571130248  0.0000
  Si     Si        0.191711094579245    0.095241410251816    0.682117564656110  0.0000
  Si     Si        0.122137954133089    0.095779066724542    0.674615120141609  0.0000
  Si     Si        0.063428417562325    0.113432557654332    0.619732156016407  0.0000
  Si     Si        0.270764851462673    0.054730887427143    0.551414912477644  0.0000
  Si     Si        0.036827600688260    0.056050720885285    0.556941813338508  0.0000
  Si     Si        0.094999029944284    0.095539372117182    0.787170456857587  0.0000
  Si     Si        0.035927976776809    0.157045426670060    0.538804427994273  0.0000
  Si     Si        0.036057542854216    0.629500646103532    0.575151184081742  0.0000
  Si     Si        0.035134548960538    0.022829058586202    0.731512428324178  0.0000
  Si     Si        0.036423109681144    0.716128588852617    0.521858629399335  0.0000
  Si     Si        0.035182548951992    0.094733555054739    0.727878131370030  0.0000
  Si     Si        0.250604074027519    0.501036930690709    0.374725587272737  0.0000
  Si     Si        0.362677991132713    0.613110847269854    0.374725587688494  0.0000
  Si     Si        0.064056046867829    0.314488903131591    0.374725591764354  0.0000
  O      O         0.000474797641448    0.061537259795352    0.566625111170851  0.0000
  O      O         0.214631976459021    0.005139749429115    0.639273888436566  0.0000
  O      O         0.215703503630571    0.113897611345235    0.645614634612266  0.0000
  O      O         0.057548184369648    0.536494339167792    0.602020567888707  0.0000
  O      O         0.196026401808394    0.011932736141339    0.739430329966080  0.0000
  O      O         0.198471826494507    0.059073321601023    0.674902008903457  0.0000
  O      O         0.059243849777575    0.015859972428110    0.779663372357144  0.0000
  O      O         0.251722113346429    0.081625760114230    0.580604743433731  0.0000
  O      O         0.156532823328357    0.014944878398993    0.658926643508084  0.0000
  O      O         0.114644123175886    0.059593357433844    0.668397839182711  0.0000
  O      O         0.195478290001538    0.104690773776683    0.743856668660365  0.0000
  O      O         0.098068135566572    0.005802599415168    0.632904725946835  0.0000
  O      O         0.361505015689975    0.084136614784019    0.584574530289789  0.0000
  O      O         0.114812730528614    0.105897763559696    0.735475729965454  0.0000
  O      O         0.099981933901944    0.113656736138529    0.633165569764163  0.0000
  O      O         0.307155910412599    0.060801593859552    0.561416002124531  0.0000
  O      O         0.058513287316365    0.651286120775767    0.610376687220462  0.0000
  O      O         0.114499693834641    0.013196180743569    0.734683879641257  0.0000
  O      O         0.157496201682040    0.103869343700112    0.661186592460682  0.0000
  O      O         0.045254093014422    0.555468097870308    0.504885272832087  0.0000
  O      O         0.260849168903445    0.021350286914900    0.573692834238061  0.0000
  O      O         0.101295740553406    0.059632165029391    0.798838689512950  0.0000
  O      O         0.255111458068604    0.142589511670832    0.588960599953810  0.0000
  O      O         0.273509747884182    0.105684195864641    0.669282613734607  0.0000
  O      O         0.041480207085656    0.635494777502846    0.512272494315866  0.0000
  O      O         0.058672477760850    0.102832981534381    0.776486093697577  0.0000
  O      O         0.056828693623442    0.145006107477361    0.587642445032280  0.0000
  O      O         0.047190300927945    0.023370688953251    0.580883136277460  0.0000
  O      O         0.038660268348761    0.058504109290116    0.713178719163540  0.0000
  O      O         0.042949709728191    0.002422169436823    0.679777667183453  0.0000
  O      O         0.045514339274133    0.192475016830820    0.525236557785642  0.0000
  O      O         0.055172301004351    0.083888139374551    0.584122711430053  0.0000
  O      O         0.043865565054259    0.593864424673335    0.587215594818165  0.0000
  O      O         0.043644553665806    0.113559306568439    0.674521290877772  0.0000
  O      O         0.106770798241848    0.113701748923289    0.839708654090364  0.0000
  O      O         0.055867078934731    0.709232891361055    0.574900074226077  0.0000
  O      O         0.000474796115520    0.550981845194402    0.575657298998260  0.0000
  O      O         0.000474799210528    0.154840032890635    0.557592068966253  0.0000
  O      O         0.000474796045628    0.103069626558453    0.746754823246024  0.0000
  O      O         0.000474795179225    0.637452150555712    0.589640515420091  0.0000
  O      O         0.000474795689726    0.708172185175623    0.747649676619979  0.0000
  O      O         0.000474795209346    0.015429055768890    0.752084456789937  0.0000
  O      O         0.000474796570143    0.711071923245642    0.536883733540821  0.0000
  Si     Si        0.251170716307107    0.891236915252854    0.120729456914379  0.0000
  Si     Si        0.309653631664853    0.978953505742166    0.178554174805200  0.0000
  Si     Si        0.405190054199695    0.978196917608376    0.287634415891080  0.0000
  Si     Si        0.439523352002075    0.499959509284588    0.123948264121268  0.0000
  Si     Si        0.379755605094659    0.978577418217141    0.173519097921004  0.0000
  Si     Si        0.464506022765033    0.442630633660631    0.066844259138379  0.0000
  Si     Si        0.156850843006048    0.945665096461851    0.055511572043735  0.0000
  Si     Si        0.309238497540980    0.906573893557364    0.182117560760287  0.0000
  Si     Si        0.378811638027054    0.906036234657059    0.174615116186200  0.0000
  Si     Si        0.437521174916877    0.888382743492704    0.119732152182076  0.0000
  Si     Si        0.230184739791339    0.947084417575200    0.051414911646588  0.0000
  Si     Si        0.464121992901597    0.945764580807423    0.056941814563204  0.0000
  Si     Si        0.405950561083836    0.906275931031481    0.287170452612318  0.0000
  Si     Si        0.465021619405961    0.844769872223459    0.038804429399694  0.0000
  Si     Si        0.464892047622038    0.372314657679443    0.075151184540877  0.0000
  Si     Si        0.465815042250062    0.978986246473438    0.231512431043058  0.0000
  Si     Si        0.464526481836818    0.285686715185075    0.021858629291889  0.0000
  Si     Si        0.465767042914100    0.907081750806515    0.227878127376950  0.0000
  Si     Si        0.250345517355398    0.500778373710390    0.874725586896741  0.0000
  Si     Si        0.138271599646387    0.388704456886281    0.874725587743565  0.0000
  Si     Si        0.436893544074972    0.687326400328246    0.874725587164456  0.0000
  O      O         0.500474795858229    0.940278034905001    0.066625105448652  0.0000
  O      O         0.286317615440426    0.996675554871725    0.139273885479494  0.0000
  O      O         0.285246087700301    0.887917692565457    0.145614632174058  0.0000
  O      O         0.443401407516427    0.465320965650072    0.102020565893761  0.0000
  O      O         0.304923190268309    0.989882566679653    0.239430325436435  0.0000
  O      O         0.302477766804752    0.942741982115594    0.174902001494666  0.0000
  O      O         0.441705741228064    0.985955327708026    0.279663377391279  0.0000
  O      O         0.249227478329710    0.920189545015923    0.080604742023300  0.0000
  O      O         0.344416769568086    0.986870425186435    0.158926639923637  0.0000
  O      O         0.386305468070018    0.942221944329793    0.168397838267412  0.0000
  O      O         0.305471301489064    0.897124532263813    0.243856665547853  0.0000
  O      O         0.402881457840276    0.996012700809334    0.132904721402799  0.0000
  O      O         0.139444575645636    0.917678689665083    0.084574531197998  0.0000
  O      O         0.386136862545655    0.895917536695167    0.235475725095933  0.0000
  O      O         0.400967658206655    0.888158565378143    0.133165564653269  0.0000
  O      O         0.193793680950711    0.941013710944139    0.061416002799084  0.0000
  O      O         0.442436303165410    0.350529183346311    0.110376688391618  0.0000
  O      O         0.386449899425533    0.988619123288469    0.234683875434852  0.0000
  O      O         0.343453390207135    0.897945957936648    0.161186589641412  0.0000
  O      O         0.455695499667108    0.446347204200677    0.004885272474353  0.0000
  O      O         0.240100422313821    0.980465018356578    0.073692832836002  0.0000
  O      O         0.399653845767955    0.942183137658892    0.298838684173050  0.0000
  O      O         0.245838132625039    0.859225793324017    0.088960598204867  0.0000
  O      O         0.227439843778432    0.896131109694365    0.169282612446806  0.0000
  O      O         0.459469382537023    0.366320526352029    0.012272494834125  0.0000
  O      O         0.442277114248858    0.898982325581210    0.276486090799281  0.0000
  O      O         0.444120901676648    0.856809192076270    0.087642446089586  0.0000
  O      O         0.453759299337889    0.978444611945617    0.080883149742202  0.0000
  O      O         0.462289324799785    0.943311196621704    0.213178713220151  0.0000
  O      O         0.457999879485834    0.999393140044261    0.179777675851651  0.0000
  O      O         0.455435243117967    0.809340289254928    0.025236527659553  0.0000
  O      O         0.445777290288879    0.917927161008171    0.084122704653609  0.0000
  O      O         0.457084026682379    0.407950879407403    0.087215596378080  0.0000
  O      O         0.457305037944677    0.888255998346230    0.174521288022124  0.0000
  O      O         0.394178793553655    0.888113554170169    0.339708650598158  0.0000
  O      O         0.445082512563830    0.292582413093272    0.074900074001387  0.0000
  O      O         0.500474795573962    0.450833459198319    0.075657299177766  0.0000
  O      O         0.500474795612633    0.846975242672999    0.057592086553889  0.0000
  O      O         0.500474795652850    0.898745679432370    0.246754820356589  0.0000
  O      O         0.500474795217496    0.364363152322881    0.089640514529262  0.0000
  O      O         0.500474794894306    0.293643118053262    0.247649676721348  0.0000
  O      O         0.500474795666424    0.986386249468295    0.252084460809041  0.0000
  O      O         0.500474794928129    0.290743380803042    0.036883733257755  0.0000
  Si     Si        0.140804055578977    0.000211731093053    0.870729460929599  0.0000
  Si     Si        0.228520647605168    0.941728816084205    0.928554174175994  0.0000
  Si     Si        0.227764060480915    0.846192394174663    0.037634415991426  0.0000
  Si     Si        0.749526652876446    0.811859096546534    0.873948264113035  0.0000
  Si     Si        0.228144560780110    0.871626842607875    0.923519097641341  0.0000
  Si     Si        0.692197777339916    0.786876425185327    0.816844259801723  0.0000
  Si     Si        0.195232238818674    0.094531605127958    0.805511572764667  0.0000
  Si     Si        0.156141035526797    0.942143949556245    0.932117562714045  0.0000
  Si     Si        0.155603377127857    0.872570809320072    0.924615116530117  0.0000
  Si     Si        0.137949886694934    0.813861272491223    0.869732152323046  0.0000
  Si     Si        0.196651558113486    0.021197708854570    0.801414916400647  0.0000
  Si     Si        0.195331724312629    0.787260454904784    0.806941814709726  0.0000
  Si     Si        0.155843073892476    0.845431886688786    0.037170453110602  0.0000
  Si     Si        0.094337015429047    0.786360827659325    0.788804429715873  0.0000
  Si     Si        0.621881801368548    0.786490399848032    0.825151185007523  0.0000
  Si     Si        0.228553390001627    0.785567406013115    0.981512431624490  0.0000
  Si     Si        0.535253858939948    0.786855964868626    0.771858630033388  0.0000
  Si     Si        0.156648894376512    0.785615404973229    0.977878127809698  0.0000
  Si     Si        0.750345516905428    0.001036931199560    0.624725586625193  0.0000
  Si     Si        0.638271600998960    0.113110848322598    0.624725588466988  0.0000
  Si     Si        0.936893544063301    0.814488903731036    0.624725587669143  0.0000
  O      O         0.189845178101511    0.750907651972682    0.816625105168044  0.0000
  O      O         0.246242695420776    0.965064832036601    0.889273882497199  0.0000
  O      O         0.137484833697872    0.966136359757189    0.895614636423262  0.0000
  O      O         0.714888109215545    0.807981040602218    0.852020566371721  0.0000
  O      O         0.239449709238249    0.946459258504920    0.989430324086541  0.0000
  O      O         0.192309123905264    0.948904680647582    0.924902002335708  0.0000
  O      O         0.235522470755032    0.809676707098015    0.029663378150506  0.0000
  O      O         0.169756686340869    0.002154969748413    0.830604747939754  0.0000
  O      O         0.236437567341701    0.906965678227595    0.908926639652494  0.0000
  O      O         0.191789086884181    0.865076979435962    0.918397838587445  0.0000
  O      O         0.146691675033199    0.945911144791698    0.993856667944628  0.0000
  O      O         0.245579843596347    0.848500990093043    0.882904720787002  0.0000
  O      O         0.167245833983244    0.111937876121528    0.834574532128434  0.0000
  O      O         0.145484679021468    0.865245584728823    0.985475725394693  0.0000
  O      O         0.137725708068507    0.850414789226845    0.883165564681355  0.0000
  O      O         0.190580847180658    0.057588767700837    0.811416000353662  0.0000
  O      O         0.600096327017360    0.808946144269952    0.860376688875236  0.0000
  O      O         0.238186266192975    0.864932548445416    0.984683874925236  0.0000
  O      O         0.147513100115951    0.907929057118860    0.911186590329312  0.0000
  O      O         0.695914347731216    0.795686948160141    0.754885273029861  0.0000
  O      O         0.230032159222825    0.011282031033392    0.823692841239482  0.0000
  O      O         0.191750280473070    0.851728602680470    0.048838683932797  0.0000
  O      O         0.108792933859018    0.005544312929599    0.838960600586161  0.0000
  O      O         0.145698247525929    0.023942604611911    0.919282615869616  0.0000
  O      O         0.615887670291138    0.791913065074252    0.762272495299830  0.0000
  O      O         0.148549468934295    0.809105333420981    0.026486091513472  0.0000
  O      O         0.106376335341395    0.807261545188772    0.837642446533819  0.0000
  O      O         0.228011755395853    0.797623148045645    0.830883150469837  0.0000
  O      O         0.192878340198573    0.789093123338409    0.963178713530209  0.0000
  O      O         0.248960283785873    0.793382568976650    0.929777676569155  0.0000
  O      O         0.058907432976061    0.795947205105155    0.775236526092985  0.0000
  O      O         0.167494304380633    0.805605157582282    0.834122704609557  0.0000
  O      O         0.657518022992027    0.794298420906406    0.837215597183171  0.0000
  O      O         0.137823141928562    0.794077409732815    0.924521288436787  0.0000
  O      O         0.137680697147942    0.857203654227070    0.089708651384383  0.0000
  O      O         0.542149556908321    0.806299934713003    0.824900074050583  0.0000
  O      O         0.700400602955431    0.750907652430526    0.825657299926771  0.0000
  O      O         0.096542384119503    0.750907651493771    0.807592087544113  0.0000
  O      O         0.148312823167858    0.750907652235987    0.996754820768932  0.0000
  O      O         0.613930295628644    0.750907652318074    0.839640514758600  0.0000
  O      O         0.543210261332298    0.750907652149783    0.997649676169730  0.0000
  O      O         0.235953393163787    0.750907652575311    0.002084461003270  0.0000
  O      O         0.540310524099342    0.750907651823745    0.786883735213766  0.0000
  Si     Si        0.360145533976695    0.001603573171270    0.370729458020439  0.0000
  Si     Si        0.272428942779671    0.060086488473571    0.428554175168316  0.0000
  Si     Si        0.273185530418368    0.155622910529984    0.537634417577781  0.0000
  Si     Si        0.751422936867999    0.189956207570649    0.373948261397996  0.0000
  Si     Si        0.272805029673805    0.130188462030395    0.423519098942586  0.0000
  Si     Si        0.808751813064837    0.214938881571608    0.316844263364796  0.0000
  Si     Si        0.305717351705510    0.907283699658060    0.305511570147679  0.0000
  Si     Si        0.344808554938065    0.059671354521336    0.432117561883097  0.0000
  Si     Si        0.345346213275568    0.129244494862621    0.424615116975939  0.0000
  Si     Si        0.362999704224796    0.187954031523517    0.369732152881078  0.0000
  Si     Si        0.304298031861044    0.980617596207170    0.301414912428460  0.0000
  Si     Si        0.305617866703074    0.214554849571114    0.306941815931552  0.0000
  Si     Si        0.345106516993372    0.156383417514144    0.537170453941029  0.0000
  Si     Si        0.406612574920818    0.215454475803343    0.288804429119429  0.0000
  Si     Si        0.879067788834143    0.215324899946901    0.325151193914732  0.0000
  Si     Si        0.272396201540663    0.216247898536037    0.481512433357955  0.0000
  Si     Si        0.965695728874015    0.214959364306642    0.271858645640225  0.0000
  Si     Si        0.344300697182211    0.216199899178105    0.477878128748001  0.0000
  Si     Si        0.750604074676563    0.000778372669621    0.124725587979155  0.0000
  Si     Si        0.862677991647334    0.888704457305907    0.124725586393117  0.0000
  Si     Si        0.564056046946767    0.187326400332216    0.124725587112075  0.0000
  O      O         0.311104412827540    0.250907652566575    0.316625105928642  0.0000
  O      O         0.254706894521056    0.036750472481369    0.389273884238341  0.0000
  O      O         0.363464756218644    0.035678944498338    0.395614633910663  0.0000
  O      O         0.786061479851960    0.193834261943103    0.352020559084436  0.0000
  O      O         0.261499881338803    0.055356046253393    0.489430325308079  0.0000
  O      O         0.308640466436429    0.052910623620972    0.424902002806863  0.0000
  O      O         0.265427120464651    0.192138597637079    0.529663379899154  0.0000
  O      O         0.331192904019808    0.999660334890862    0.330604743640377  0.0000
  O      O         0.264512023093158    0.094849626359809    0.408926640958811  0.0000
  O      O         0.309160503581247    0.136738325036495    0.418397839264514  0.0000
  O      O         0.354257916131160    0.055904159043958    0.493856666769447  0.0000
  O      O         0.255369746708861    0.153314314621579    0.382904722667722  0.0000
  O      O         0.333703758183102    0.889877430803340    0.334574527879640  0.0000
  O      O         0.355464911363652    0.136569719223754    0.485475725964137  0.0000
  O      O         0.363223882460614    0.151400514816274    0.383165565178063  0.0000
  O      O         0.310368739491055    0.944226537335791    0.311416001244747  0.0000
  O      O         0.900853257525348    0.192869165777293    0.360376728848258  0.0000
  O      O         0.262763324633546    0.136882756183002    0.484683876568846  0.0000
  O      O         0.353436490168361    0.093886247077163    0.411186590127782  0.0000
  O      O         0.805035256727991    0.206128359119117    0.254885274240185  0.0000
  O      O         0.270917431079450    0.990533277526969    0.323692834724073  0.0000
  O      O         0.309199310399112    0.150086701907382    0.548838685458127  0.0000
  O      O         0.392156655747972    0.996270990080712    0.338960598471721  0.0000
  O      O         0.355251340510940    0.977872700181202    0.419282613018611  0.0000
  O      O         0.885061924691651    0.209902200568592    0.262272513813767  0.0000
  O      O         0.352400122458176    0.192709970664647    0.526486092272360  0.0000
  O      O         0.394573255464447    0.194553758256758    0.337642446227266  0.0000
  O      O         0.272937835767066    0.204192156361358    0.330883152203528  0.0000
  O      O         0.308071251330216    0.212722180860820    0.463178715043457  0.0000
  O      O         0.251989307698607    0.208432735724223    0.429777678544418  0.0000
  O      O         0.442042157780003    0.205868099377117    0.275236526523975  0.0000
  O      O         0.333455286616136    0.196210147043057    0.334122705813219  0.0000
  O      O         0.843431565583512    0.207516893186977    0.337215618083533  0.0000
  O      O         0.363126449577929    0.207737894207704    0.424521289225544  0.0000
  O      O         0.363268893701383    0.144611649980983    0.589708652060829  0.0000
  O      O         0.958800015912860    0.195515374404560    0.324900061547182  0.0000
  O      O         0.800548979506300    0.250907653034132    0.325657300386087  0.0000
  O      O         0.404407205020027    0.250907652002543    0.307592086602031  0.0000
  O      O         0.352636768651302    0.250907651983072    0.496754821278575  0.0000
  O      O         0.887019305921138    0.250907651737305    0.339640469026358  0.0000
  O      O         0.957739343923659    0.250907654009431    0.497649667530656  0.0000
  O      O         0.264996198746131    0.250907652049973    0.502084462928012  0.0000
  O      O         0.960639082566300    0.250907675122362    0.286883803509727  0.0000
  Si     Si        0.251170716040704    0.110578388327666    0.878721721531614  0.0000
  Si     Si        0.309653631957585    0.022861798699524    0.820897001736283  0.0000
  Si     Si        0.405190054597804    0.023618386601674    0.711816759723648  0.0000
  Si     Si        0.439523352202161    0.501855794969204    0.875502909930990  0.0000
  Si     Si        0.379755605361952    0.023237886098246    0.825932077815496  0.0000
  Si     Si        0.464506023067761    0.559184670510216    0.932606914809017  0.0000
  Si     Si        0.156850842716759    0.056150207907749    0.943939607469071  0.0000
  Si     Si        0.309238497366114    0.095241410968895    0.817333616273411  0.0000
  Si     Si        0.378811637926497    0.095779069669783    0.824836059299614  0.0000
  Si     Si        0.437521174802982    0.113432560674450    0.879719022940357  0.0000
  Si     Si        0.230184739789433    0.054730886631879    0.948036268572231  0.0000
  Si     Si        0.464121992820228    0.056050723463147    0.942509360658232  0.0000
  Si     Si        0.405950561130376    0.095539373202306    0.712280722791829  0.0000
  Si     Si        0.465021619107238    0.157045431850481    0.960646745625741  0.0000
  Si     Si        0.464892048188754    0.629500646456042    0.924299989374312  0.0000
  Si     Si        0.465815042546704    0.022829057815099    0.767938744249096  0.0000
  Si     Si        0.464526482413746    0.716128588999017    0.977592544735593  0.0000
  Si     Si        0.465767042975276    0.094733553491336    0.771573047719001  0.0000
  Si     Si        0.250345517344852    0.501036930685903    0.124725587014517  0.0000
  Si     Si        0.138271600894298    0.613110848331760    0.124725588346930  0.0000
  Si     Si        0.436893543447658    0.314488903802088    0.124725587132881  0.0000
  O      O         0.500474795804178    0.061537269576658    0.932826069998276  0.0000
  O      O         0.286317615731973    0.005139749919286    0.860177291512618  0.0000
  O      O         0.285246087568915    0.113897611307083    0.853836546393352  0.0000
  O      O         0.443401407758684    0.536494338564448    0.897430608256504  0.0000
  O      O         0.304923190660383    0.011932737399190    0.760020851279509  0.0000
  O      O         0.302477767006287    0.059073322308098    0.824549174510525  0.0000
  O      O         0.441705741625668    0.015859976522619    0.719787798003438  0.0000
  O      O         0.249227478062538    0.081625759139021    0.918846437498015  0.0000
  O      O         0.344416769859906    0.014944879216014    0.840524536329325  0.0000
  O      O         0.386305468166416    0.059593360027433    0.831053337118115  0.0000
  O      O         0.305471301013797    0.104690772731953    0.755594511698387  0.0000
  O      O         0.402881458117632    0.005802603570356    0.866546454256681  0.0000
  O      O         0.139444576758800    0.084136615688160    0.914876648996859  0.0000
  O      O         0.386136862330293    0.105897767559317    0.763975450215269  0.0000
  O      O         0.400967658147017    0.113656738941435    0.866285610522102  0.0000
  O      O         0.193793680855318    0.060801591098959    0.938035175030137  0.0000
  O      O         0.442436303809924    0.651286120781660    0.889074485587199  0.0000
  O      O         0.386449899768336    0.013196180884216    0.764767300297344  0.0000
  O      O         0.343453390176160    0.103869346492617    0.838264586571452  0.0000
  O      O         0.455695499761352    0.555468100166056    0.994565901477377  0.0000
  O      O         0.240100424598593    0.021350286098845    0.925758349200354  0.0000
  O      O         0.399653846064109    0.059632166528391    0.700612491499315  0.0000
  O      O         0.245838131107962    0.142589510096150    0.910490579864914  0.0000
  O      O         0.227439844138192    0.105684192894389    0.830168565628524  0.0000
  O      O         0.459469382827322    0.635494777719999    0.987178679064326  0.0000
  O      O         0.442277114258938    0.102832978747571    0.722965084561201  0.0000
  O      O         0.444120901397466    0.145006112062536    0.911808729084013  0.0000
  O      O         0.453759299646975    0.023370692187250    0.918568025610089  0.0000
  O      O         0.462289324956423    0.058504107677154    0.786272461936468  0.0000
  O      O         0.457999879763916    0.002422164219497    0.819673499436632  0.0000
  O      O         0.455435242982142    0.192475014866890    0.974214647228971  0.0000
  O      O         0.445777290121332    0.083888143055500    0.915328470208075  0.0000
  O      O         0.457084027275083    0.593864424767178    0.912235577329245  0.0000
  O      O         0.457305037976874    0.113559305943090    0.824929887110099  0.0000
  O      O         0.394178793683690    0.113701749869479    0.659742524592569  0.0000
  O      O         0.445082513007703    0.709232891032249    0.924551100322980  0.0000
  O      O         0.500474795872018    0.550981844821714    0.923793874745975  0.0000
  O      O         0.500474795303633    0.154840061229047    0.941859088196724  0.0000
  O      O         0.500474795744590    0.103069624891353    0.752696354627310  0.0000
  O      O         0.500474795795848    0.637452151954280    0.909810659408805  0.0000
  O      O         0.500474795813363    0.708172186178107    0.751801497885627  0.0000
  O      O         0.500474796021809    0.015429054875484    0.747366714456112  0.0000
  O      O         0.500474795522927    0.711071923653242    0.962567440137825  0.0000
  Si     Si        0.249778874891774    0.891236914274812    0.378721718577959  0.0000
  Si     Si        0.191295959698091    0.978953505275091    0.320897001044889  0.0000
  Si     Si        0.095759536615383    0.978196917787118    0.211816760735323  0.0000
  Si     Si        0.061426238274419    0.499959508411153    0.375502906564605  0.0000
  Si     Si        0.121193986348479    0.978577418169868    0.325932078598597  0.0000
  Si     Si        0.036443570092026    0.442630634461632    0.432606919150232  0.0000
  Si     Si        0.344098748537097    0.945665096040893    0.443939605101472  0.0000
  Si     Si        0.191711093735431    0.906573893036292    0.317333614594921  0.0000
  Si     Si        0.122137953194470    0.906036235014573    0.324836059605551  0.0000
  Si     Si        0.063428416237339    0.888382743905297    0.379719023140548  0.0000
  Si     Si        0.270764851774839    0.947084416455442    0.448036264564466  0.0000
  Si     Si        0.036827599544034    0.945764581702838    0.442509361832703  0.0000
  Si     Si        0.094999029943035    0.906275931202152    0.212280722791099  0.0000
  Si     Si        0.035927972081430    0.844769872316018    0.460646745915764  0.0000
  Si     Si        0.036057536036060    0.372314657990889    0.424299996985726  0.0000
  Si     Si        0.035134548915744    0.978986246702470    0.267938746805741  0.0000
  Si     Si        0.036423129937789    0.285686713860767    0.477592556859877  0.0000
  Si     Si        0.035182548303617    0.907081750774218    0.271573048223963  0.0000
  Si     Si        0.250604073506344    0.500778373536236    0.624725588276474  0.0000
  Si     Si        0.362677991682004    0.388704457113886    0.624725586420976  0.0000
  Si     Si        0.064056047399106    0.687326400098105    0.624725586847837  0.0000
  O      O         0.000474796581438    0.940278037476182    0.432826068928340  0.0000
  O      O         0.214631975635792    0.996675553596756    0.360177291910154  0.0000
  O      O         0.215703503364992    0.887917692161338    0.353836543697130  0.0000
  O      O         0.057548181954583    0.465320964230860    0.397430601452333  0.0000
  O      O         0.196026400998988    0.989882567160628    0.260020850899973  0.0000
  O      O         0.198471824828519    0.942741981632983    0.324549172394382  0.0000
  O      O         0.059243850032846    0.985955329240291    0.219787801375688  0.0000
  O      O         0.251722113352467    0.920189543964657    0.418846433736902  0.0000
  O      O         0.156532821940114    0.986870424608341    0.340524536688817  0.0000
  O      O         0.114644122720424    0.942221944498956    0.331053340229888  0.0000
  O      O         0.195478289864499    0.897124531012289    0.255594510074822  0.0000
  O      O         0.098068133957943    0.996012702165548    0.366546453986090  0.0000
  O      O         0.361505016366833    0.917678689371921    0.414876646024486  0.0000
  O      O         0.114812729335908    0.895917538164373    0.263975449957787  0.0000
  O      O         0.099981932800113    0.888158564996798    0.366285609619348  0.0000
  O      O         0.307155910697302    0.941013709267544    0.438035175421833  0.0000
  O      O         0.058513290438937    0.350529179075965    0.389074521700222  0.0000
  O      O         0.114499692584895    0.988619122226693    0.264767300626404  0.0000
  O      O         0.157496200972903    0.897945958176087    0.338264586231904  0.0000
  O      O         0.045254097310816    0.446347215684217    0.494565902732661  0.0000
  O      O         0.260849169939365    0.980465017087474    0.425758342479706  0.0000
  O      O         0.101295743453879    0.942183137895099    0.200612490281243  0.0000
  O      O         0.255111458238201    0.859225792334780    0.410490577230303  0.0000
  O      O         0.273509747541120    0.896131108169646    0.330168563059571  0.0000
  O      O         0.041480171645651    0.366320531685017    0.487178695349083  0.0000
  O      O         0.058672477141826    0.898982324617351    0.222965085554848  0.0000
  O      O         0.056828689680161    0.856809192756695    0.411808729752709  0.0000
  O      O         0.047190294503715    0.978444613323801    0.418568030407060  0.0000
  O      O         0.038660267087307    0.943311196597638    0.286272462046536  0.0000
  O      O         0.042949710991973    0.999393139291144    0.319673503623108  0.0000
  O      O         0.045514347857900    0.809340288971747    0.474214645529889  0.0000
  O      O         0.055172301598045    0.917927162077835    0.415328469873995  0.0000
  O      O         0.043865568533568    0.407950878269271    0.412235594103547  0.0000
  O      O         0.043644552574787    0.888255998490245    0.324929888016974  0.0000
  O      O         0.106770797859056    0.888113554203613    0.159742525156410  0.0000
  O      O         0.055867084671381    0.292582398270937    0.424551090475463  0.0000
  O      O         0.000474796353852    0.450833456394005    0.423793881859141  0.0000
  O      O         0.000474795817661    0.846975244039513    0.441859089583905  0.0000
  O      O         0.000474795602040    0.898745679888865    0.252696354556585  0.0000
  O      O         0.000474792015366    0.364363161371025    0.409810619688576  0.0000
  O      O         0.000474794619541    0.293643133976019    0.251801494671953  0.0000
  O      O         0.000474795489088    0.986386249761802    0.247366717270045  0.0000
  O      O         0.000474815382363    0.290743395800306    0.462567491792574  0.0000
  Si     Si        0.360145534610083    0.000211731111566    0.628721717841625  0.0000
  Si     Si        0.272428943466697    0.941728815761915    0.570897001650316  0.0000
  Si     Si        0.273185530662381    0.846192393468925    0.461816759299484  0.0000
  Si     Si        0.751422938963738    0.811859096275291    0.625502909957516  0.0000
  Si     Si        0.272805030513292    0.871626842281715    0.575932077730759  0.0000
  Si     Si        0.808751814289086    0.786876424706043    0.682606914332756  0.0000
  Si     Si        0.305717351998921    0.094531604931059    0.693939607172809  0.0000
  Si     Si        0.344808555651600    0.942143949741433    0.567333614016334  0.0000
  Si     Si        0.345346214030287    0.872570809366773    0.574836058530781  0.0000
  Si     Si        0.362999704784496    0.813861272654236    0.629719022486055  0.0000
  Si     Si        0.304298032699244    0.021197708344279    0.698036264437015  0.0000
  Si     Si        0.305617867333294    0.787260455253802    0.692509360578347  0.0000
  Si     Si        0.345106517283000    0.845431886461109    0.462280721761362  0.0000
  Si     Si        0.406612575866159    0.786360828215932    0.710646745385664  0.0000
  Si     Si        0.879067790244758    0.786490399418679    0.674299989143352  0.0000
  Si     Si        0.272396201683191    0.785567405525016    0.517938743759007  0.0000
  Si     Si        0.965695732624529    0.786855963722016    0.727592544037242  0.0000
  Si     Si        0.344300697426747    0.785615404813013    0.521573047038098  0.0000
  Si     Si        0.750604074925893    0.001036931232678    0.874725586996894  0.0000
  Si     Si        0.862677991412672    0.113110847207894    0.874725587285988  0.0000
  Si     Si        0.564056047420225    0.814488903853554    0.874725587277422  0.0000
  O      O         0.311104413486258    0.750907652308883    0.682826069931858  0.0000
  O      O         0.254706895623742    0.965064831578262    0.610177293541349  0.0000
  O      O         0.363464756713220    0.966136359676846    0.603836542336431  0.0000
  O      O         0.786061482545013    0.807981040278274    0.647430607931227  0.0000
  O      O         0.261499881507759    0.946459258033640    0.510020851853290  0.0000
  O      O         0.308640467131872    0.948904680599783    0.574549172985963  0.0000
  O      O         0.265427120218331    0.809676706510823    0.469787797639351  0.0000
  O      O         0.331192904867859    0.002154969765345    0.668846432853403  0.0000
  O      O         0.264512023941216    0.906965677882745    0.590524536018228  0.0000
  O      O         0.309160504391318    0.865076979137724    0.581053337197353  0.0000
  O      O         0.354257916932760    0.945911145476509    0.505594509153789  0.0000
  O      O         0.255369747526187    0.848500989786098    0.616546454161958  0.0000
  O      O         0.333703758446892    0.111937873948357    0.664876649320208  0.0000
  O      O         0.355464911655405    0.865245585120165    0.513975449231598  0.0000
  O      O         0.363223883516475    0.850414789277830    0.616285609586572  0.0000
  O      O         0.310368740500692    0.057588767292721    0.688035176840920  0.0000
  O      O         0.900853264418283    0.808946143790366    0.639074485007264  0.0000
  O      O         0.262763325341125    0.864932548180492    0.514767300261870  0.0000
  O      O         0.353436490938907    0.907929057127624    0.588264585424312  0.0000
  O      O         0.805035244200275    0.795686947834579    0.744565901132096  0.0000
  O      O         0.270917432080577    0.011282027294181    0.675758341710771  0.0000
  O      O         0.309199310622210    0.851728601567516    0.450612490612536  0.0000
  O      O         0.392156656427068    0.005544314151918    0.660490577005992  0.0000
  O      O         0.355251341113220    0.023942603944711    0.580168562605186  0.0000
  O      O         0.885061921374347    0.791913065316803    0.737178678672016  0.0000
  O      O         0.352400122989035    0.809105333397298    0.472965083735300  0.0000
  O      O         0.394573256059171    0.807261545712557    0.661808728605675  0.0000
  O      O         0.272937836069790    0.797623148376748    0.668568025569237  0.0000
  O      O         0.308071251575852    0.789093123269323    0.536272460920452  0.0000
  O      O         0.251989308246925    0.793382568237951    0.569673499333475  0.0000
  O      O         0.442042158659674    0.795947204880257    0.724214647734748  0.0000
  O      O         0.333455286991060    0.805605157932782    0.665328469986650  0.0000
  O      O         0.843431568607145    0.794298420128567    0.662235576610557  0.0000
  O      O         0.363126449739415    0.794077409540761    0.574929886609775  0.0000
  O      O         0.363268893801597    0.857203654056543    0.409742523376614  0.0000
  O      O         0.958800034332419    0.806299934174513    0.674551100909769  0.0000
  O      O         0.800548988345342    0.750907652006148    0.673793874057833  0.0000
  O      O         0.404407206056989    0.750907652018022    0.691859087855279  0.0000
  O      O         0.352636768754020    0.750907652030768    0.502696354120568  0.0000
  O      O         0.887019296304275    0.750907651835050    0.659810660105367  0.0000
  O      O         0.957739330641905    0.750907652072387    0.501801499050660  0.0000
  O      O         0.264996198675955    0.750907652051079    0.497366714269143  0.0000
  O      O         0.960639068046309    0.750907650716252    0.712567437260234  0.0000
  Si     Si        0.140804056706973    0.001603573482663    0.128721718723507  0.0000
  Si     Si        0.228520646492981    0.060086489732653    0.070897006303184  0.0000
  Si     Si        0.227764058205984    0.155622909544460    0.961816761139104  0.0000
  Si     Si        0.749526653490412    0.189956204808065    0.125502915872272  0.0000
  Si     Si        0.228144557766127    0.130188463213515    0.075932081638884  0.0000
  Si     Si        0.692197776677834    0.214938879873702    0.182606913986290  0.0000
  Si     Si        0.195232239184911    0.907283699441357    0.193939605945052  0.0000
  Si     Si        0.156141034414513    0.059671355812742    0.067333617438363  0.0000
  Si     Si        0.155603373750662    0.129244496178465    0.074836063831306  0.0000
  Si     Si        0.137949882330649    0.187954033188619    0.129719027905484  0.0000
  Si     Si        0.196651558763164    0.980617595907348    0.198036263971664  0.0000
  Si     Si        0.195331720708341    0.214554851129493    0.192509360106567  0.0000
  Si     Si        0.155843072132285    0.156383417869095    0.962280726681508  0.0000
  Si     Si        0.094337007646977    0.215454482267851    0.210646743560620  0.0000
  Si     Si        0.621881800634778    0.215324904160647    0.174299989531969  0.0000
  Si     Si        0.228553389991152    0.216247898468424    0.017938741873068  0.0000
  Si     Si        0.535253858118788    0.214959339414065    0.227592544271117  0.0000
  Si     Si        0.156648894939710    0.216199900053719    0.021573052284427  0.0000
  Si     Si        0.750345516719201    0.000778373391406    0.374725587105985  0.0000
  Si     Si        0.638271600284350    0.888704456567636    0.374725587301533  0.0000
  Si     Si        0.936893540895677    0.187326401003870    0.374725592350256  0.0000
  O      O         0.189845168139958    0.250907653835166    0.182826073820440  0.0000
  O      O         0.246242694626387    0.036750473331743    0.110177296797430  0.0000
  O      O         0.137484833446140    0.035678944830382    0.103836543741591  0.0000
  O      O         0.714888109292720    0.193834264728208    0.147430608445468  0.0000
  O      O         0.239449708061781    0.055356047202284    0.010020856376241  0.0000
  O      O         0.192309122810076    0.052910625605018    0.074549179096588  0.0000
  O      O         0.235522467244288    0.192138597149036    0.969787794046360  0.0000
  O      O         0.169756687130056    0.999660335121830    0.168846432295197  0.0000
  O      O         0.236437565600647    0.094849627897210    0.090524540175526  0.0000
  O      O         0.191789083657524    0.136738325653307    0.081053341313693  0.0000
  O      O         0.146691675105301    0.055904160063259    0.005594511814172  0.0000
  O      O         0.245579839830033    0.153314316392930    0.116546458035499  0.0000
  O      O         0.167245833383062    0.889877429701947    0.164876647733187  0.0000
  O      O         0.145484675942845    0.136569720866966    0.013975454902622  0.0000
  O      O         0.137725703654699    0.151400516271146    0.116285615166356  0.0000
  O      O         0.190580849575489    0.944226537050337    0.188035177117957  0.0000
  O      O         0.600096326582112    0.192869159596050    0.139074485594109  0.0000
  O      O         0.238186263667942    0.136882757298848    0.014767304457325  0.0000
  O      O         0.147513097281293    0.093886248020609    0.088264589222044  0.0000
  O      O         0.695914346272920    0.206128356942964    0.244565900867605  0.0000
  O      O         0.230032159890370    0.990533275465669    0.175758341017202  0.0000
  O      O         0.191750278272409    0.150086699178705    0.950612494874084  0.0000
  O      O         0.108792935106769    0.996270990315462    0.160490578590558  0.0000
  O      O         0.145698249995247    0.977872700562407    0.080168563319445  0.0000
  O      O         0.615887669779827    0.209902238424481    0.237178679356369  0.0000
  O      O         0.148549469656329    0.192709971660651    0.972965088389152  0.0000
  O      O         0.106376329269763    0.194553763526704    0.161808728375512  0.0000
  O      O         0.228011750905392    0.204192163555426    0.168568013236227  0.0000
  O      O         0.192878340896763    0.212722182052526    0.036272466984940  0.0000
  O      O         0.248960287522492    0.208432734393805    0.069673492177788  0.0000
  O      O         0.058907432461758    0.205868090312228    0.224214678551613  0.0000
  O      O         0.167494299142481    0.196210145922617    0.165328479597546  0.0000
  O      O         0.657518022474755    0.207516884176857    0.162235576099161  0.0000
  O      O         0.137823142073952    0.207737895808847    0.074929891476459  0.0000
  O      O         0.137680695287989    0.144611650760359    0.909742528074178  0.0000
  O      O         0.542149556354565    0.195515369677547    0.174551100236792  0.0000
  O      O         0.700400602767830    0.250907652529095    0.173793873858758  0.0000
  O      O         0.096542351758339    0.250907656976426    0.191859068095647  0.0000
  O      O         0.148312824265099    0.250907652748655    0.002696358144621  0.0000
  O      O         0.613930293989832    0.250907651569793    0.159810660433281  0.0000
  O      O         0.543210260764174    0.250907651959374    0.001801498093639  0.0000
  O      O         0.235953392925213    0.250907651600495    0.997366710801542  0.0000
  O      O         0.540310523282840    0.250907652476012    0.212567439308956  0.0000
  Si     Si        0.751170717276447    0.110578390809692    0.620729456549288  0.0000
  Si     Si        0.809653631284487    0.022861800302010    0.678554173869863  0.0000
  Si     Si        0.905190053879567    0.023618387767683    0.787634414594154  0.0000
  Si     Si        0.939523355986532    0.501855794196644    0.623948269652841  0.0000
  Si     Si        0.879755604554811    0.023237886492814    0.673519097271730  0.0000
  Si     Si        0.964506023204655    0.559184669428187    0.566844257296855  0.0000
  Si     Si        0.656850843310208    0.056150208832854    0.555511570662975  0.0000
  Si     Si        0.809238498668202    0.095241412333771    0.682117560380672  0.0000
  Si     Si        0.878811639643133    0.095779069761037    0.674615113778302  0.0000
  Si     Si        0.937521177222661    0.113432563885548    0.619732153370542  0.0000
  Si     Si        0.730184739918618    0.054730888575014    0.551414911092948  0.0000
  Si     Si        0.964121993997044    0.056050724028437    0.556941815308550  0.0000
  Si     Si        0.905950561396481    0.095539374177071    0.787170451731579  0.0000
  Si     Si        0.965021622195264    0.157045429206640    0.538804426372053  0.0000
  Si     Si        0.964892047834302    0.629500645379568    0.575151183128861  0.0000
  Si     Si        0.965815042021412    0.022829059992714    0.731512427456055  0.0000
  Si     Si        0.964526483347758    0.716128588935980    0.521858630667531  0.0000
  Si     Si        0.965767043473333    0.094733555774846    0.727878128735290  0.0000
  Si     Si        0.750345517150254    0.501036931152363    0.374725586021745  0.0000
  Si     Si        0.638271599891433    0.613110847497347    0.374725587825026  0.0000
  Si     Si        0.936893543398021    0.314488910738693    0.374725588651287  0.0000
  O      O         0.786317615641913    0.005139751797479    0.639273882807100  0.0000
  O      O         0.785246088735688    0.113897613501581    0.645614631996183  0.0000
  O      O         0.943401407788948    0.536494336356681    0.602020561673744  0.0000
  O      O         0.804923190335470    0.011932738348387    0.739430323945863  0.0000
  O      O         0.802477766163322    0.059073323968510    0.674902002819425  0.0000
  O      O         0.941705740773038    0.015859977982788    0.779663372982335  0.0000
  O      O         0.749227478899951    0.081625760476246    0.580604742652169  0.0000
  O      O         0.844416768962966    0.014944881232011    0.658926638007702  0.0000
  O      O         0.886305469915692    0.059593360015490    0.668397835769845  0.0000
  O      O         0.805471303671247    0.104690774276466    0.743856665245698  0.0000
  O      O         0.902881456178823    0.005802601260162    0.632904722448544  0.0000
  O      O         0.639444575267987    0.084136615431549    0.584574529620210  0.0000
  O      O         0.886136864177214    0.105897768187637    0.735475722482670  0.0000
  O      O         0.900967659930890    0.113656738868319    0.633165561963377  0.0000
  O      O         0.693793681083823    0.060801596318901    0.561416000073971  0.0000
  O      O         0.942436303127175    0.651286120111068    0.610376685971009  0.0000
  O      O         0.886449897664277    0.013196182289686    0.734683875496104  0.0000
  O      O         0.843453391574709    0.103869346153312    0.661186587651325  0.0000
  O      O         0.955695500723330    0.555468098908263    0.504885270313758  0.0000
  O      O         0.740100421000505    0.021350287608954    0.573692832678366  0.0000
  O      O         0.899653845630633    0.059632167683812    0.798838683221319  0.0000
  O      O         0.745838133828822    0.142589512206390    0.588960596070491  0.0000
  O      O         0.727439844347852    0.105684197648620    0.669282611933302  0.0000
  O      O         0.959469383891993    0.635494776849947    0.512272493115420  0.0000
  O      O         0.942277114755803    0.102832979597839    0.776486092758773  0.0000
  O      O         0.944120903170331    0.145006116218596    0.587642447576281  0.0000
  O      O         0.953759292277327    0.023370694203195    0.580883143993347  0.0000
  O      O         0.962289325499547    0.058504110236105    0.713178711485220  0.0000
  O      O         0.957999879537568    0.002422167713959    0.679777670681925  0.0000
  O      O         0.955435268388930    0.192475019971113    0.525236536775548  0.0000
  O      O         0.945777297475933    0.083888147515106    0.584122706289158  0.0000
  O      O         0.957084026145461    0.593864423713842    0.587215594245220  0.0000
  O      O         0.957305038099862    0.113559310286691    0.674521291573564  0.0000
  O      O         0.894178793187641    0.113701751198993    0.839708648905686  0.0000
  O      O         0.945082514778847    0.709232891391534    0.574900076221089  0.0000
  Si     Si        0.749778875372308    0.110578391471344    0.878721718017386  0.0000
  Si     Si        0.691295959861835    0.022861799880370    0.820897001161476  0.0000
  Si     Si        0.595759537357104    0.023618387327561    0.711816759176458  0.0000
  Si     Si        0.561426239539189    0.501855794766034    0.875502909403060  0.0000
  Si     Si        0.621193986454357    0.023237886834770    0.825932077469352  0.0000
  Si     Si        0.536443568676205    0.559184670393384    0.932606914600526  0.0000
  Si     Si        0.844098749625985    0.056150208198394    0.943939605644316  0.0000
  Si     Si        0.691711093999430    0.095241412118183    0.817333614707694  0.0000
  Si     Si        0.622137953471075    0.095779070437648    0.824836058906772  0.0000
  Si     Si        0.563428416411712    0.113432560931214    0.879719022836012  0.0000
  Si     Si        0.770764852680428    0.054730888639705    0.948036263352456  0.0000
  Si     Si        0.536827598756445    0.056050723544496    0.942509360641788  0.0000
  Si     Si        0.594999030366570    0.095539373886422    0.712280722240302  0.0000
  Si     Si        0.535927971430830    0.157045431871070    0.960646745608231  0.0000
  Si     Si        0.536057543340043    0.629500646359895    0.924299989363156  0.0000
  Si     Si        0.535134549417865    0.022829057996553    0.767938744010185  0.0000
  Si     Si        0.536423108615637    0.716128588994305    0.977592544505162  0.0000
  Si     Si        0.535182548548986    0.094733553723861    0.771573047478707  0.0000
  Si     Si        0.750604073656195    0.501036931960833    0.124725585403967  0.0000
  Si     Si        0.862677991253154    0.613110847291472    0.124725585365260  0.0000
  Si     Si        0.564056046259842    0.314488903831204    0.124725587071430  0.0000
  O      O         0.714631975996166    0.005139751492566    0.860177291509000  0.0000
  O      O         0.715703503600398    0.113897613089274    0.853836543902657  0.0000
  O      O         0.557548183985691    0.536494338374180    0.897430607863579  0.0000
  O      O         0.696026401976152    0.011932738913079    0.760020850710853  0.0000
  O      O         0.698471824276580    0.059073323565267    0.824549174436623  0.0000
  O      O         0.559243850456693    0.015859976750835    0.719787797656900  0.0000
  O      O         0.751722115019873    0.081625761493884    0.918846432165585  0.0000
  O      O         0.656532821998379    0.014944879802139    0.840524535264759  0.0000
  O      O         0.614644123847564    0.059593360743926    0.831053337744071  0.0000
  O      O         0.695478290786344    0.104690773038181    0.755594509835757  0.0000
  O      O         0.598068133740071    0.005802603965920    0.866546453708039  0.0000
  O      O         0.861505018092341    0.084136613367668    0.914876643660184  0.0000
  O      O         0.614812728900561    0.105897767951102    0.763975449854350  0.0000
  O      O         0.599981933107359    0.113656739631275    0.866285610209725  0.0000
  O      O         0.807155911843977    0.060801595990809    0.938035176941177  0.0000
  O      O         0.558513287802916    0.651286120750512    0.889074485697377  0.0000
  O      O         0.614499692186932    0.013196182094161    0.764767299810241  0.0000
  O      O         0.657496201195131    0.103869347903481    0.838264584914822  0.0000
  O      O         0.545254091930778    0.555468100030970    0.994565901252980  0.0000
  O      O         0.760849171356731    0.021350288181453    0.925758339871840  0.0000
  O      O         0.601295745459232    0.059632167266487    0.700612490299158  0.0000
  O      O         0.755111458477617    0.142589513479382    0.910490577376986  0.0000
  O      O         0.773509747474310    0.105684198284040    0.830168561224701  0.0000
  O      O         0.541480208414474    0.635494777541715    0.987178679121585  0.0000
  O      O         0.558672477200667    0.102832979348356    0.722965084157572  0.0000
  O      O         0.556828689375450    0.145006112215526    0.911808729071974  0.0000
  O      O         0.547190292138816    0.023370692309095    0.918568025535063  0.0000
  O      O         0.538660267031000    0.058504107907758    0.786272461364640  0.0000
  O      O         0.542949712204724    0.002422164488964    0.819673499253414  0.0000
  O      O         0.545514347397432    0.192475014897349    0.974214647386416  0.0000
  O      O         0.555172301471063    0.083888143165059    0.915328470084968  0.0000
  O      O         0.543865564437732    0.593864424697976    0.912235577201772  0.0000
  O      O         0.543644553369882    0.113559306044445    0.824929887025140  0.0000
  O      O         0.606770798229981    0.113701750937383    0.659742524587223  0.0000
  O      O         0.555867078028817    0.709232891093459    0.924551099922582  0.0000
  Si     Si        0.860145534370793    0.001603573812022    0.128721717466530  0.0000
  Si     Si        0.772428943787969    0.060086486759875    0.070896999996179  0.0000
  Si     Si        0.773185531528897    0.155622910853998    0.961816760362027  0.0000
  Si     Si        0.251422936842532    0.189956210416704    0.125502908388215  0.0000
  Si     Si        0.772805029839534    0.130188459832238    0.075932077499917  0.0000
  Si     Si        0.308751812796678    0.214938879472439    0.182606916425159  0.0000
  Si     Si        0.805717352474353    0.907283699532595    0.193939604615636  0.0000
  Si     Si        0.844808555955172    0.059671355245823    0.067333613998168  0.0000
  Si     Si        0.845346212293810    0.129244496291563    0.074836061570899  0.0000
  Si     Si        0.862999708743340    0.187954034043943    0.129719020268598  0.0000
  Si     Si        0.804298032292581    0.980617596115131    0.198036263294946  0.0000
  Si     Si        0.805617867507458    0.214554848440393    0.192509360354068  0.0000
  Si     Si        0.845106517917799    0.156383418355204    0.962280721776852  0.0000
  Si     Si        0.906612564212648    0.215454479452522    0.210646757824544  0.0000
  Si     Si        0.379067788761795    0.215324904122487    0.174299989734312  0.0000
  Si     Si        0.772396205600560    0.216247898335285    0.017938751028941  0.0000
  Si     Si        0.465695731755029    0.214959339305371    0.227592544107358  0.0000
  Si     Si        0.844300702146380    0.216199899980986    0.021573044961711  0.0000
  Si     Si        0.250604074425186    0.000778373570867    0.374725588403555  0.0000
  Si     Si        0.362677990903106    0.888704456612372    0.374725586971313  0.0000
  Si     Si        0.064056048406332    0.187326403759949    0.374725587315033  0.0000
  O      O         0.811104395889733    0.250907652382375    0.182826059373067  0.0000
  O      O         0.754706895743127    0.036750471315165    0.110177291916176  0.0000
  O      O         0.863464757000071    0.035678945429341    0.103836542738776  0.0000
  O      O         0.286061479540844    0.193834264419372    0.147430612054585  0.0000
  O      O         0.761499881146436    0.055356045735073    0.010020850171708  0.0000
  O      O         0.808640467576004    0.052910621954360    0.074549169470929  0.0000
  O      O         0.765427119349654    0.192138596712651    0.969787808200709  0.0000
  O      O         0.831192903845278    0.999660335131605    0.168846430905917  0.0000
  O      O         0.764512024736891    0.094849624250790    0.090524536475990  0.0000
  O      O         0.809160502854472    0.136738326608262    0.081053345432985  0.0000
  O      O         0.854257918833074    0.055904160438808    0.005594509456379  0.0000
  O      O         0.755369741258211    0.153314311051926    0.116546448250227  0.0000
  O      O         0.833703758374318    0.889877431074111    0.164876644434238  0.0000
  O      O         0.855464908092174    0.136569719680997    0.013975451321966  0.0000
  O      O         0.863223883290223    0.151400516934289    0.116285610252177  0.0000
  O      O         0.810368740614040    0.944226537254740    0.188035175599240  0.0000
  O      O         0.400853263232139    0.192869159749026    0.139074485752110  0.0000
  O      O         0.762763329172803    0.136882751237430    0.014767297250362  0.0000
  O      O         0.853436488994917    0.093886248226311    0.088264587364933  0.0000
  O      O         0.305035243079823    0.206128356449909    0.244565903274776  0.0000
  O      O         0.770917431093826    0.990533276323295    0.175758341610342  0.0000
  O      O         0.809199311316712    0.150086706667077    0.950612486135817  0.0000
  O      O         0.892156655789005    0.996270990577032    0.160490577949167  0.0000
  O      O         0.855251341458920    0.977872700942946    0.080168561842124  0.0000
  O      O         0.385061920267686    0.209902238881249    0.237178679369961  0.0000
  O      O         0.852400126803181    0.192709970877073    0.972965081816361  0.0000
  O      O         0.894573260222668    0.194553758637495    0.161808731034185  0.0000
  O      O         0.772937837520856    0.204192140145029    0.168568041200187  0.0000
  O      O         0.808071256601466    0.212722180309204    0.036272460751133  0.0000
  O      O         0.751989316489160    0.208432738242475    0.069673512279249  0.0000
  O      O         0.942042162290799    0.205868148939560    0.224214637640881  0.0000
  O      O         0.833455291487889    0.196210155405124    0.165328464354836  0.0000
  O      O         0.343431566969659    0.207516883124150    0.162235578160636  0.0000
  O      O         0.863126457123903    0.207737895312604    0.074929882290331  0.0000
  O      O         0.863268895328313    0.144611648748185    0.909742526012710  0.0000
  O      O         0.458800033603831    0.195515369624572    0.174551100003368  0.0000
  O      O         0.300548987825608    0.250907652311092    0.173793875947169  0.0000
  O      O         0.904407139671357    0.250907656887659    0.191859128703727  0.0000
  O      O         0.852636771863075    0.250907652762903    0.002696350011474  0.0000
  O      O         0.387019294499047    0.250907651632049    0.159810659683522  0.0000
  O      O         0.457739329285464    0.250907651916481    0.001801498087207  0.0000
  O      O         0.764996201104204    0.250907651289763    0.997366720983227  0.0000
  O      O         0.460639066702080    0.250907652376853    0.212567439111889  0.0000
  Si     Si        0.640804057950278    0.000211731671123    0.628721717956513  0.0000
  Si     Si        0.728520648775901    0.941728816035269    0.570897000291387  0.0000
  Si     Si        0.727764061084261    0.846192393554811    0.461816758613970  0.0000
  Si     Si        0.249526652938640    0.811859095937507    0.625502910616019  0.0000
  Si     Si        0.728144561600382    0.871626842636939    0.575932076950916  0.0000
  Si     Si        0.192197777404207    0.786876424688012    0.682606915273298  0.0000
  Si     Si        0.695232240420971    0.094531605598879    0.693939605220768  0.0000
  Si     Si        0.656141036594873    0.942143950068683    0.567333614101172  0.0000
  Si     Si        0.655603378095757    0.872570809656853    0.574836058777996  0.0000
  Si     Si        0.637949887089604    0.813861272861439    0.629719022687327  0.0000
  Si     Si        0.696651560037267    0.021197708927154    0.698036263508944  0.0000
  Si     Si        0.695331724587533    0.787260455342581    0.692509360227120  0.0000
  Si     Si        0.655843074475744    0.845431886592137    0.462280721942082  0.0000
  Si     Si        0.594337015869910    0.786360828215217    0.710646745281142  0.0000
  Si     Si        0.121881801502381    0.786490399161923    0.674299990198791  0.0000
  Si     Si        0.728553390153962    0.785567405661527    0.517938743458529  0.0000
  Si     Si        0.035253858905199    0.786855963934073    0.727592544612176  0.0000
  Si     Si        0.656648894403909    0.785615404928173    0.521573047187366  0.0000
  Si     Si        0.250345517097530    0.001036931293503    0.874725590963152  0.0000
  Si     Si        0.138271600679285    0.113110848443934    0.874725590592225  0.0000
  Si     Si        0.436893544032075    0.814488903862493    0.874725587391651  0.0000
  O      O         0.689845179022160    0.750907652381572    0.682826068893273  0.0000
  O      O         0.746242697169925    0.965064832270228    0.610177290665009  0.0000
  O      O         0.637484835776168    0.966136360236429    0.603836542507628  0.0000
  O      O         0.214888109278807    0.807981040027719    0.647430608531004  0.0000
  O      O         0.739449710200047    0.946459257674365    0.510020850019210  0.0000
  O      O         0.692309125138719    0.948904680937700    0.574549172705805  0.0000
  O      O         0.735522471599723    0.809676706640819    0.469787797266330  0.0000
  O      O         0.669756687480939    0.002154970331466    0.668846433216141  0.0000
  O      O         0.736437568326312    0.906965678238475    0.590524535105628  0.0000
  O      O         0.691789087750241    0.865076979532231    0.581053337226816  0.0000
  O      O         0.646691675089991    0.945911145643657    0.505594509382922  0.0000
  O      O         0.745579844707596    0.848500990131328    0.616546453038056  0.0000
  O      O         0.667245833576125    0.111937874063371    0.664876647847836  0.0000
  O      O         0.645484680443397    0.865245585360589    0.513975449584312  0.0000
  O      O         0.637725708650540    0.850414789523934    0.616285609961886  0.0000
  O      O         0.690580853079293    0.057588767865688    0.688035174038961  0.0000
  O      O         0.100096327033162    0.808946143842673    0.639074487279705  0.0000
  O      O         0.738186266400424    0.864932548521643    0.514767299227972  0.0000
  O      O         0.647513101274539    0.907929057479691    0.588264585730767  0.0000
  O      O         0.195914347999632    0.795686947842668    0.744565901969177  0.0000
  O      O         0.730032160489038    0.011282026934906    0.675758340719872  0.0000
  O      O         0.691750281111867    0.851728601567268    0.450612490073607  0.0000
  O      O         0.608792935970964    0.005544314824210    0.660490576763273  0.0000
  O      O         0.645698251899116    0.023942604545279    0.580168562917588  0.0000
  O      O         0.115887670564521    0.791913063729764    0.737178680190106  0.0000
  O      O         0.648549468789913    0.809105333538843    0.472965084033348  0.0000
  O      O         0.606376335699198    0.807261545984503    0.661808728748502  0.0000
  O      O         0.728011755678535    0.797623149100571    0.668568025176189  0.0000
  O      O         0.692878340248664    0.789093123402814    0.536272460820197  0.0000
  O      O         0.748960283583840    0.793382568402747    0.569673498880053  0.0000
  O      O         0.558907432985476    0.795947204638335    0.724214647579684  0.0000
  O      O         0.667494304690194    0.805605157832209    0.665328470203577  0.0000
  O      O         0.157518023087053    0.794298420540255    0.662235578128471  0.0000
  O      O         0.637823142100373    0.794077409749511    0.574929886838834  0.0000
  O      O         0.637680697612459    0.857203654101350    0.409742523983225  0.0000
  O      O         0.042149556283388    0.806299932455143    0.674551099039029  0.0000
  O      O         0.200400602833896    0.750907651888752    0.673793874866604  0.0000
  O      O         0.596542386003463    0.750907652041011    0.691859087576925  0.0000
  O      O         0.648312823084043    0.750907652136957    0.502696354371008  0.0000
  O      O         0.113930296006338    0.750907651708247    0.659810659194185  0.0000
  O      O         0.043210262178985    0.750907651978051    0.501801497452790  0.0000
  O      O         0.735953393168438    0.750907652166366    0.497366713986423  0.0000
  O      O         0.040310524783208    0.750907650766549    0.712567441517677  0.0000
  Si     Si        0.749778875441527    0.891236914141766    0.120729457322217  0.0000
  Si     Si        0.691295959411363    0.978953504952904    0.178554174316090  0.0000
  Si     Si        0.595759537052177    0.978196917293274    0.287634415873924  0.0000
  Si     Si        0.561426239352952    0.499959509347276    0.123948264080809  0.0000
  Si     Si        0.621193986062889    0.978577417736228    0.173519097535361  0.0000
  Si     Si        0.536443568407043    0.442630633758398    0.066844259082485  0.0000
  Si     Si        0.844098749293595    0.945665096825181    0.055511569386179  0.0000
  Si     Si        0.691711093684765    0.906573892778414    0.182117560605201  0.0000
  Si     Si        0.622137953249264    0.906036234220065    0.174615115940849  0.0000
  Si     Si        0.563428416442700    0.888382743381753    0.119732151996288  0.0000
  Si     Si        0.770764852516324    0.947084416085973    0.051414911090381  0.0000
  Si     Si        0.536827598812716    0.945764580786703    0.056941814389564  0.0000
  Si     Si        0.594999030184246    0.906275930698632    0.287170452693816  0.0000
  Si     Si        0.535927971839065    0.844769872237780    0.038804429275503  0.0000
  Si     Si        0.536057542773088    0.372314657808748    0.075151184299379  0.0000
  Si     Si        0.535134549138889    0.978986246421088    0.231512431208378  0.0000
  Si     Si        0.536423108053750    0.285686715191070    0.021858629417976  0.0000
  Si     Si        0.535182548472174    0.907081750694174    0.227878127504514  0.0000
  Si     Si        0.750604074388127    0.500778374002375    0.874725582075802  0.0000
  Si     Si        0.862677992125125    0.388704458252630    0.874725584452119  0.0000
  Si     Si        0.564056047337163    0.687326400291650    0.874725587028817  0.0000
  O      O         0.714631975718932    0.996675553376572    0.139273884157425  0.0000
  O      O         0.715703503830667    0.887917691972182    0.145614632111754  0.0000
  O      O         0.557548183679714    0.465320965697012    0.102020565866916  0.0000
  O      O         0.696026400788514    0.989882566463858    0.239430324621448  0.0000
  O      O         0.698471824416656    0.942741981340193    0.174902002006942  0.0000
  O      O         0.559243850118179    0.985955327770806    0.279663377434487  0.0000
  O      O         0.751722114257066    0.920189543393222    0.080604741558117  0.0000
  O      O         0.656532821644967    0.986870424450313    0.158926639254984  0.0000
  O      O         0.614644123036849    0.942221943862327    0.168397837654814  0.0000
  O      O         0.695478289368698    0.897124531369574    0.243856665375125  0.0000
  O      O         0.598068133510845    0.996012700717884    0.132904721356362  0.0000
  O      O         0.861505017590081    0.917678690192953    0.084574527655433  0.0000
  O      O         0.614812728910547    0.895917536513318    0.235475725117611  0.0000
  O      O         0.599981933105760    0.888158564839503    0.133165564698815  0.0000
  O      O         0.807155911535627    0.941013709676691    0.061416000519083  0.0000
  O      O         0.558513287031347    0.350529183347249    0.110376688051780  0.0000
  O      O         0.614499691936748    0.988619122691049    0.234683875221242  0.0000
  O      O         0.657496201081228    0.897945957401242    0.161186589105444  0.0000
  O      O         0.545254091752303    0.446347204293729    0.004885272405061  0.0000
  O      O         0.760849170018515    0.980465016417376    0.073692833535062  0.0000
  O      O         0.601295745211018    0.942183137342533    0.298838684397481  0.0000
  O      O         0.755111459038992    0.859225792127312    0.088960598779554  0.0000
  O      O         0.773509747797485    0.896131108664553    0.169282613006124  0.0000
  O      O         0.541480207921595    0.366320526609258    0.012272494506560  0.0000
  O      O         0.558672477088167    0.898982325110803    0.276486090704060  0.0000
  O      O         0.556828689511436    0.856809192017118    0.087642445930666  0.0000
  O      O         0.547190292263805    0.978444611948210    0.080883149550005  0.0000
  O      O         0.538660266861982    0.943311196533250    0.213178713797860  0.0000
  O      O         0.542949711883213    0.999393139896032    0.179777675845380  0.0000
  O      O         0.545514348083810    0.809340289263906    0.025236527336179  0.0000
  O      O         0.555172301467207    0.917927161013172    0.084122704475982  0.0000
  O      O         0.543865564114837    0.407950879410784    0.087215596284783  0.0000
  O      O         0.543644553327180    0.888255998402666    0.174521287871046  0.0000
  O      O         0.606770797774285    0.888113553954316    0.339708650753310  0.0000
  O      O         0.555867076953592    0.292582412922570    0.074900074437240  0.0000
  Si     Si        0.751170716683690    0.891236914011457    0.378721716970263  0.0000
  Si     Si        0.809653631717981    0.978953505021026    0.320897000332496  0.0000
  Si     Si        0.905190054079153    0.978196918019398    0.211816760338044  0.0000
  Si     Si        0.939523352862453    0.499959511435208    0.375502905692331  0.0000
  Si     Si        0.879755605122112    0.978577418185931    0.325932078244086  0.0000
  Si     Si        0.964506021849421    0.442630638285236    0.432606920245570  0.0000
  Si     Si        0.656850842925725    0.945665095866174    0.443939604964198  0.0000
  Si     Si        0.809238498119322    0.906573892916579    0.317333613378235  0.0000
  Si     Si        0.878811638634307    0.906036234785362    0.324836059241544  0.0000
  Si     Si        0.937521175386202    0.888382743237040    0.379719022717178  0.0000
  Si     Si        0.730184739619888    0.947084416133961    0.448036263016856  0.0000
  Si     Si        0.964121993400961    0.945764580967910    0.442509360693885  0.0000
  Si     Si        0.905950561146404    0.906275931449627    0.212280722303965  0.0000
  Si     Si        0.965021619521911    0.844769872386705    0.460646746013518  0.0000
  Si     Si        0.964892050589587    0.372314664765040    0.424300005142380  0.0000
  Si     Si        0.965815041918226    0.978986246582959    0.267938746145502  0.0000
  Si     Si        0.964526497185659    0.285686715296918    0.477592526985511  0.0000
  Si     Si        0.965767042790615    0.907081750990876    0.271573047578028  0.0000
  Si     Si        0.750345518283963    0.500778372988631    0.624725585034664  0.0000
  Si     Si        0.638271599919848    0.388704456713227    0.624725585142321  0.0000
  Si     Si        0.936893544259755    0.687326399489785    0.624725586888186  0.0000
  O      O         0.786317615589923    0.996675553432590    0.360177290959324  0.0000
  O      O         0.785246088119221    0.887917691720373    0.353836541439184  0.0000
  O      O         0.943401409898940    0.465320968523798    0.397430604841582  0.0000
  O      O         0.804923190954018    0.989882567183108    0.260020850253701  0.0000
  O      O         0.802477766242501    0.942741981409230    0.324549171041963  0.0000
  O      O         0.941705741166045    0.985955327769310    0.219787799567422  0.0000
  O      O         0.749227478292632    0.920189543969325    0.418846431607813  0.0000
  O      O         0.844416769370715    0.986870423954085    0.340524536716291  0.0000
  O      O         0.886305469220956    0.942221944425177    0.331053336799211  0.0000
  O      O         0.805471303303303    0.897124530918921    0.255594508632732  0.0000
  O      O         0.902881457147183    0.996012701263402    0.366546455421164  0.0000
  O      O         0.639444574603175    0.917678689355339    0.414876646399068  0.0000
  O      O         0.886136863064739    0.895917536532846    0.263975450248140  0.0000
  O      O         0.900967658546699    0.888158565718467    0.366285611272834  0.0000
  O      O         0.693793680710531    0.941013708645141    0.438035174398743  0.0000
  O      O         0.942436286296414    0.350529184043862    0.389074553190166  0.0000
  O      O         0.886449899261510    0.988619123856526    0.264767300971650  0.0000
  O      O         0.843453390712280    0.897945958516337    0.338264586198623  0.0000
  O      O         0.955695496471823    0.446347218372152    0.494565904724159  0.0000
  O      O         0.740100420972784    0.980465016956569    0.425758341125464  0.0000
  O      O         0.899653845294922    0.942183138106062    0.200612491926123  0.0000
  O      O         0.745838133491743    0.859225792243977    0.410490576250848  0.0000
  O      O         0.727439843817144    0.896131107665524    0.330168561883446  0.0000
  O      O         0.959469425924945    0.366320550802745    0.487178710334237  0.0000
  O      O         0.942277114436632    0.898982326445644    0.222965083482619  0.0000
  O      O         0.944120901908833    0.856809191899810    0.411808729056618  0.0000
  O      O         0.953759298002827    0.978444611911692    0.418568027598040  0.0000
  O      O         0.962289324600052    0.943311196670654    0.286272463595901  0.0000
  O      O         0.957999878843064    0.999393140157722    0.319673501532680  0.0000
  O      O         0.955435244339748    0.809340289049117    0.474214647016932  0.0000
  O      O         0.945777292102152    0.917927160662587    0.415328469648603  0.0000
  O      O         0.957084020121319    0.407950883806857    0.412235590626779  0.0000
  O      O         0.957305037641311    0.888255997594985    0.324929885900044  0.0000
  O      O         0.894178793797304    0.888113554821340    0.159742523934542  0.0000
  O      O         0.945082567811992    0.292582388203023    0.424551031179632  0.0000
  Si     Si        0.640804057333592    0.001603572874588    0.370729457793836  0.0000
  Si     Si        0.728520647985226    0.060086488302446    0.428554173756592  0.0000
  Si     Si        0.727764061322054    0.155622910457499    0.537634413547785  0.0000
  Si     Si        0.249526652365720    0.189956208633133    0.373948266687359  0.0000
  Si     Si        0.728144560544366    0.130188461722209    0.423519096081578  0.0000
  Si     Si        0.192197777778751    0.214938879406134    0.316844258141947  0.0000
  Si     Si        0.695232239567405    0.907283699280012    0.305511569726222  0.0000
  Si     Si        0.656141035915675    0.059671354267273    0.432117561640437  0.0000
  Si     Si        0.655603376665229    0.129244494778672    0.424615116516228  0.0000
  Si     Si        0.637949885722161    0.187954031284300    0.369732151929054  0.0000
  Si     Si        0.696651559448337    0.980617595938727    0.301414911600247  0.0000
  Si     Si        0.695331722401128    0.214554850364294    0.306941813383242  0.0000
  Si     Si        0.655843074642128    0.156383417603306    0.537170452222607  0.0000
  Si     Si        0.594337014971146    0.215454475787983    0.288804429122846  0.0000
  Si     Si        0.121881802774894    0.215324907649565    0.325151176769631  0.0000
  Si     Si        0.728553390149587    0.216247898425600    0.481512428572957  0.0000
  Si     Si        0.035253855801654    0.214959354208848    0.271858643466330  0.0000
  Si     Si        0.656648894820024    0.216199899311403    0.477878126464677  0.0000
  Si     Si        0.250345516497544    0.000778374093645    0.124725588872720  0.0000
  Si     Si        0.138271600526956    0.888704456453762    0.124725588848322  0.0000
  Si     Si        0.436893542861674    0.187326400310624    0.124725587189203  0.0000
  O      O         0.689845176267589    0.250907653444726    0.316625102913175  0.0000
  O      O         0.746242696450203    0.036750472270100    0.389273883097317  0.0000
  O      O         0.637484834744462    0.035678944187550    0.395614633783404  0.0000
  O      O         0.214888108893057    0.193834265600836    0.352020569134234  0.0000
  O      O         0.739449710153514    0.055356047384207    0.489430323792779  0.0000
  O      O         0.692309124390884    0.052910622941360    0.424902002658940  0.0000
  O      O         0.735522469837651    0.192138598016134    0.529663376503748  0.0000
  O      O         0.669756687384399    0.999660334638945    0.330604743346691  0.0000
  O      O         0.736437566720543    0.094849626081397    0.408926637757945  0.0000
  O      O         0.691789086471578    0.136738325084142    0.418397841623389  0.0000
  O      O         0.646691674768815    0.055904159136948    0.493856666684360  0.0000
  O      O         0.745579841437467    0.153314313760740    0.382904715984614  0.0000
  O      O         0.667245833149029    0.889877430804535    0.334574528375036  0.0000
  O      O         0.645484677377582    0.136569720144557    0.485475724798671  0.0000
  O      O         0.637725708317566    0.151400514385047    0.383165562981805  0.0000
  O      O         0.690580852018831    0.944226537029442    0.311416000355663  0.0000
  O      O         0.100096324759751    0.192869153896247    0.360376654928731  0.0000
  O      O         0.738186268473350    0.136882757034987    0.484683872039996  0.0000
  O      O         0.647513100571844    0.093886246805517    0.411186589831030  0.0000
  O      O         0.195914354622746    0.206128356835453    0.254885272317383  0.0000
  O      O         0.730032160287126    0.990533277362842    0.323692833305179  0.0000
  O      O         0.691750281376458    0.150086699789750    0.548838679864077  0.0000
  O      O         0.608792935654313    0.996270989679929    0.338960598328640  0.0000
  O      O         0.645698250991331    0.977872700004174    0.419282612872852  0.0000
  O      O         0.115887677906139    0.209902264306303    0.262272479670965  0.0000
  O      O         0.648549471191872    0.192709971325776    0.526486091710952  0.0000
  O      O         0.606376334148141    0.194553758283698    0.337642446599766  0.0000
  O      O         0.728011753388086    0.204192157353941    0.330883149364327  0.0000
  O      O         0.692878340434401    0.212722181806051    0.463178709342823  0.0000
  O      O         0.748960284407610    0.208432733984762    0.429777674539615  0.0000
  O      O         0.558907432101112    0.205868099588851    0.275236526635610  0.0000
  O      O         0.667494302695918    0.196210147749340    0.334122703660095  0.0000
  O      O         0.157518022885740    0.207516879294515    0.337215587609297  0.0000
  O      O         0.637823140983599    0.207737893301683    0.424521289040213  0.0000
  O      O         0.637680698667639    0.144611650848658    0.589708651810584  0.0000
  O      O         0.042149541059850    0.195515401956636    0.324900111231859  0.0000
  O      O         0.200400598626058    0.250907652932821    0.325657301020562  0.0000
  O      O         0.596542385273781    0.250907652061249    0.307592086175418  0.0000
  O      O         0.648312823641116    0.250907652281930    0.496754818567360  0.0000
  O      O         0.113930301171680    0.250907652194788    0.339640538029986  0.0000
  O      O         0.043210277873906    0.250907650430552    0.497649690723505  0.0000
  O      O         0.735953394091012    0.250907652069617    0.502084456186858  0.0000
  O      O         0.040310534996383    0.250907669390447    0.286883712223792  0.0000
  Si     Si        0.860145534360185    0.000211731726841    0.870729457134998  0.0000
  Si     Si        0.772428943426317    0.941728816252574    0.928554173548251  0.0000
  Si     Si        0.773185531155317    0.846192393938285    0.037634415568367  0.0000
  Si     Si        0.251422938583790    0.811859096232374    0.873948264858161  0.0000
  Si     Si        0.772805030347009    0.871626842881704    0.923519097487945  0.0000
  Si     Si        0.308751814219199    0.786876425159629    0.816844259975963  0.0000
  Si     Si        0.805717351776056    0.094531605998105    0.805511569548595  0.0000
  Si     Si        0.844808555580632    0.942143950208666    0.932117559925660  0.0000
  Si     Si        0.845346213969760    0.872570809670472    0.924615115404112  0.0000
  Si     Si        0.862999704717100    0.813861272681757    0.869732151577026  0.0000
  Si     Si        0.804298031899100    0.021197709001554    0.801414911033241  0.0000
  Si     Si        0.805617867093181    0.787260455047706    0.806941813922698  0.0000
  Si     Si        0.845106517769462    0.845431886871478    0.037170452016172  0.0000
  Si     Si        0.906612575489998    0.786360827658791    0.788804428797218  0.0000
  Si     Si        0.379067790175208    0.786490399822509    0.825151185158203  0.0000
  Si     Si        0.772396201893506    0.785567406033496    0.981512430365862  0.0000
  Si     Si        0.465695732638178    0.786855964910739    0.771858629995852  0.0000
  Si     Si        0.844300697569231    0.785615405019525    0.977878127075005  0.0000
  Si     Si        0.250604075007643    0.001036930414350    0.624725589323421  0.0000
  Si     Si        0.362677990791302    0.113110847637563    0.624725589043977  0.0000
  Si     Si        0.064056047595682    0.814488903016858    0.624725587563904  0.0000
  O      O         0.811104412241414    0.750907652035759    0.816625104897279  0.0000
  O      O         0.754706894824126    0.965064832413347    0.889273883524999  0.0000
  O      O         0.863464756461403    0.966136359846938    0.895614630574905  0.0000
  O      O         0.286061482204729    0.807981040561741    0.852020566499992  0.0000
  O      O         0.761499882333213    0.946459257875016    0.989430323983700  0.0000
  O      O         0.808640467071346    0.948904680978954    0.924902000582321  0.0000
  O      O         0.765427120823754    0.809676707002287    0.029663376857820  0.0000
  O      O         0.831192904679631    0.002154971347535    0.830604742351618  0.0000
  O      O         0.764512023702509    0.906965678403842    0.908926638981771  0.0000
  O      O         0.809160504229899    0.865076979763434    0.918397837760758  0.0000
  O      O         0.854257916783417    0.945911146524160    0.993856664739428  0.0000
  O      O         0.755369747366299    0.848500990370115    0.882904721050075  0.0000
  O      O         0.833703757892383    0.111937873829828    0.834574530017970  0.0000
  O      O         0.855464912167723    0.865245585064505    0.985475724123504  0.0000
  O      O         0.863223882937043    0.850414789461896    0.883165563484436  0.0000
  O      O         0.810368738149811    0.057588768128939    0.811415999548299  0.0000
  O      O         0.400853264478328    0.808946144301115    0.860376688878259  0.0000
  O      O         0.762763325363560    0.864932548803201    0.984683875167305  0.0000
  O      O         0.853436490995212    0.907929057454269    0.911186589032715  0.0000
  O      O         0.305035244115142    0.795686948383381    0.754885273273030  0.0000
  O      O         0.770917431348896    0.011282026515050    0.823692832664138  0.0000
  O      O         0.809199311153889    0.851728602386077    0.048838683410949  0.0000
  O      O         0.892156656303098    0.005544315489994    0.838960598069209  0.0000
  O      O         0.855251340463798    0.023942603274504    0.919282614452146  0.0000
  O      O         0.385061921280134    0.791913065073387    0.762272495394581  0.0000
  O      O         0.852400122980570    0.809105333604435    0.026486090560666  0.0000
  O      O         0.894573256104134    0.807261545698120    0.837642445443880  0.0000
  O      O         0.772937836026600    0.797623149153884    0.830883148722916  0.0000
  O      O         0.808071251792764    0.789093123401508    0.963178712772038  0.0000
  O      O         0.751989308337704    0.793382568845695    0.929777675183471  0.0000
  O      O         0.942042158712910    0.795947202938404    0.775236527012536  0.0000
  O      O         0.833455287127942    0.805605157153454    0.834122704317152  0.0000
  O      O         0.343431568510830    0.794298420758503    0.837215597566592  0.0000
  O      O         0.863126450043687    0.794077409954696    0.924521287699394  0.0000
  O      O         0.863268894747452    0.857203654781670    0.089708649668119  0.0000
  O      O         0.458800034707149    0.806299934576238    0.824900074275532  0.0000
  O      O         0.300548988477072    0.750907652394060    0.825657299767911  0.0000
  O      O         0.904407204145691    0.750907651501916    0.807592085798049  0.0000
  O      O         0.852636768729775    0.750907652199495    0.996754819837658  0.0000
  O      O         0.387019295977781    0.750907652283964    0.839640514810957  0.0000
  O      O         0.457739329729598    0.750907652183322    0.997649676344644  0.0000
  O      O         0.764996198608867    0.750907652640350    0.002084459661078  0.0000
  O      O         0.460639067354533    0.750907651851548    0.786883734823480  0.0000
  Si     Si        0.749778874261697    0.610578391901123    0.120729456997957  0.0000
  Si     Si        0.691295959103502    0.522861800622000    0.178554172736150  0.0000
  Si     Si        0.595759537103116    0.523618387387060    0.287634415161912  0.0000
  Si     Si        0.561426239669807    0.001855795174552    0.123948264641321  0.0000
  Si     Si        0.621193985592187    0.523237887367398    0.173519096711912  0.0000
  Si     Si        0.536443568295549    0.059184670531115    0.066844260090454  0.0000
  Si     Si        0.844098747933883    0.556150208937026    0.055511567359452  0.0000
  Si     Si        0.691711093024133    0.595241412745494    0.182117560906379  0.0000
  Si     Si        0.622137952728183    0.595779070914373    0.174615116150451  0.0000
  Si     Si        0.563428416096084    0.613432561123182    0.119732151859141  0.0000
  Si     Si        0.770764851515592    0.554730890096093    0.051414910559603  0.0000
  Si     Si        0.536827598683127    0.556050723747290    0.056941813947662  0.0000
  Si     Si        0.594999029954348    0.595539374003603    0.287170452704672  0.0000
  Si     Si        0.535927971713421    0.657045432267406    0.038804429008708  0.0000
  Si     Si        0.536057542760384    0.129500646487750    0.075151185352448  0.0000
  Si     Si        0.535134549128499    0.522829057937071    0.231512431058963  0.0000
  Si     Si        0.536423108039177    0.216128588912692    0.021858630130719  0.0000
  Si     Si        0.535182548301225    0.594733553606249    0.227878127345353  0.0000
  O      O         0.500474795774380    0.561537270635371    0.066625104138729  0.0000
  O      O         0.714631974790734    0.505139753202871    0.139273880138588  0.0000
  O      O         0.715703502970087    0.613897614059707    0.145614633039438  0.0000
  O      O         0.557548183753250    0.036494338775696    0.102020566684615  0.0000
  O      O         0.696026401580099    0.511932738324313    0.239430322325696  0.0000
  O      O         0.698471824037383    0.559073324273295    0.174902002036558  0.0000
  O      O         0.559243850097733    0.515859976947393    0.279663377447581  0.0000
  O      O         0.751722112589346    0.581625761850649    0.080604742571244  0.0000
  O      O         0.656532821245146    0.514944881105669    0.158926638337987  0.0000
  O      O         0.614644122314814    0.559593361266053    0.168397838089874  0.0000
  O      O         0.695478288528277    0.604690773909901    0.243856665831402  0.0000
  O      O         0.598068133183824    0.505802604492889    0.132904719924834  0.0000
  O      O         0.861505017929967    0.584136614542976    0.084574525893959  0.0000
  O      O         0.614812728500334    0.605897768822731    0.235475725347665  0.0000
  O      O         0.599981932687626    0.613656740215547    0.133165564820179  0.0000
  O      O         0.807155910426856    0.560801599231357    0.061415996304071  0.0000
  O      O         0.558513287063505    0.151286120732648    0.110376689443388  0.0000
  O      O         0.614499691486150    0.513196181763444    0.234683873999180  0.0000
  O      O         0.657496200448075    0.603869347802409    0.161186589070478  0.0000
  O      O         0.545254091679169    0.055468100406827    0.004885273364706  0.0000
  O      O         0.760849171819170    0.521350289310859    0.073692834148301  0.0000
  O      O         0.601295745479253    0.559632167357276    0.298838683356260  0.0000
  O      O         0.755111457055805    0.642589513549851    0.088960597243382  0.0000
  O      O         0.773509747520674    0.605684198924784    0.169282611737946  0.0000
  O      O         0.541480208504295    0.135494777632999    0.012272495766287  0.0000
  O      O         0.558672476799117    0.602832979271962    0.276486090688361  0.0000
  O      O         0.556828689031883    0.645006112391223    0.087642445883346  0.0000
  O      O         0.547190291122870    0.523370692424155    0.080883149654893  0.0000
  O      O         0.538660266718418    0.558504107764876    0.213178713364658  0.0000
  O      O         0.542949712011216    0.502422164223175    0.179777675841974  0.0000
  O      O         0.545514348748758    0.692475014933010    0.025236526517916  0.0000
  O      O         0.555172301742078    0.583888143281404    0.084122704172857  0.0000
  O      O         0.543865563623084    0.093864424873993    0.087215597789453  0.0000
  O      O         0.543644552926952    0.613559305863056    0.174521287680511  0.0000
  O      O         0.606770797354139    0.613701750442046    0.339708651346769  0.0000
  O      O         0.555867078387926    0.209232890689669    0.074900073435743  0.0000
  O      O         0.500474795557963    0.050981844588992    0.075657299948404  0.0000
  O      O         0.500474795504517    0.654840062816656    0.057592086536702  0.0000
  O      O         0.500474795536016    0.603069624870453    0.246754820422510  0.0000
  O      O         0.500474795163428    0.137452152399851    0.089640514682888  0.0000
  O      O         0.500474794929354    0.208172186624489    0.247649675658777  0.0000
  O      O         0.500474795669883    0.515429054862099    0.252084460590858  0.0000
  O      O         0.500474795014198    0.211071924127886    0.036883736412873  0.0000
  Si     Si        0.751170716791707    0.391236913100339    0.620729454732522  0.0000
  Si     Si        0.809653634209000    0.478953503291421    0.678554166992291  0.0000
  Si     Si        0.905190052011669    0.478196915584433    0.787634413442447  0.0000
  Si     Si        0.939523350070640    0.999959509761042    0.623948261976452  0.0000
  Si     Si        0.879755608038449    0.478577414240465    0.673519092620947  0.0000
  Si     Si        0.964506023407993    0.942630633493649    0.566844260502530  0.0000
  Si     Si        0.656850843076398    0.445665095712732    0.555511568415422  0.0000
  Si     Si        0.809238498623202    0.406573891435972    0.682117557014275  0.0000
  Si     Si        0.878811638856339    0.406036229428746    0.674615112948909  0.0000
  Si     Si        0.937521175254132    0.388382740746321    0.619732147267171  0.0000
  Si     Si        0.730184739619016    0.447084415470988    0.551414909934445  0.0000
  Si     Si        0.964121995109750    0.445764577289608    0.556941815558448  0.0000
  Si     Si        0.905950560317281    0.406275929536647    0.787170447649487  0.0000
  Si     Si        0.965021625476646    0.344769865677720    0.538804433455709  0.0000
  Si     Si        0.964892047775300    0.872314657519782    0.575151186026013  0.0000
  Si     Si        0.965815041929248    0.478986249319092    0.731512437266692  0.0000
  Si     Si        0.964526483490604    0.785686715278268    0.521858630135891  0.0000
  Si     Si        0.965767043231866    0.407081755015918    0.727878122050404  0.0000
  O      O         0.000474797654396    0.440278014984286    0.566625092058199  0.0000
  O      O         0.786317617653424    0.496675551834829    0.639273877220956  0.0000
  O      O         0.785246087885233    0.387917690101973    0.645614630897689  0.0000
  O      O         0.943401407874481    0.965320966115400    0.602020565401525  0.0000
  O      O         0.804923192074109    0.489882564668307    0.739430317046073  0.0000
  O      O         0.802477769045309    0.442741979809087    0.674901993625768  0.0000
  O      O         0.941705740730936    0.485955321834117    0.779663387587739  0.0000
  O      O         0.749227478599763    0.420189543591312    0.580604741381112  0.0000
  O      O         0.844416772647613    0.486870421761863    0.658926633176272  0.0000
  O      O         0.886305469213947    0.442221939494954    0.668397841227979  0.0000
  O      O         0.805471302779043    0.397124532874632    0.743856662870938  0.0000
  O      O         0.902881461799946    0.496012692655245    0.632904711928882  0.0000
  O      O         0.639444573787980    0.417678689308755    0.584574525755424  0.0000
  O      O         0.886136864401410    0.395917528926184    0.735475720444733  0.0000
  O      O         0.900967658351016    0.388158560437440    0.633165559237253  0.0000
  O      O         0.693793680753153    0.441013707022568    0.561415997923127  0.0000
  O      O         0.942436303631588    0.850529183568193    0.610376691060470  0.0000
  O      O         0.886449903596549    0.488619124423731    0.734683867535545  0.0000
  O      O         0.843453390802988    0.397945953761559    0.661186586143231  0.0000
  O      O         0.955695500839982    0.946347202812519    0.504885273516733  0.0000
  O      O         0.740100420156322    0.480465016398622    0.573692832539888  0.0000
  O      O         0.899653836928148    0.442183135608474    0.798838674342842  0.0000
  O      O         0.745838134139770    0.359225791659634    0.588960594146266  0.0000
  O      O         0.727439843555400    0.396131105833787    0.669282609735249  0.0000
  O      O         0.959469381330053    0.866320526218795    0.512272496622905  0.0000
  O      O         0.942277115039703    0.398982331061593    0.776486086869459  0.0000
  O      O         0.944120907011104    0.356809187400313    0.587642448727895  0.0000
  O      O         0.953759317078765    0.478444608199795    0.580883172656417  0.0000
  O      O         0.962289327480960    0.443311200979725    0.713178705262012  0.0000
  O      O         0.957999875563192    0.499393150298075    0.679777691621336  0.0000
  O      O         0.955435215688278    0.309340299025546    0.525236469175359  0.0000
  O      O         0.945777285825814    0.417927157867078    0.584122694747502  0.0000
  O      O         0.957084027681145    0.907950879385450    0.587215598854091  0.0000
  O      O         0.957305037984690    0.388256002038384    0.674521283545472  0.0000
  O      O         0.894178795039801    0.388113553249696    0.839708648249753  0.0000
  O      O         0.945082513229070    0.792582413998699    0.574900073387836  0.0000
  O      O         0.000474796043154    0.950833459502672    0.575657301216646  0.0000
  O      O         0.000474798830838    0.346975184928702    0.557592125382387  0.0000
  O      O         0.000474795662680    0.398745683137456    0.746754816228202  0.0000
  O      O         0.000474795339417    0.864363151047018    0.589640514149725  0.0000
  O      O         0.000474795666089    0.793643116492910    0.747649676063884  0.0000
  O      O         0.000474794890922    0.486386252598629    0.752084469031841  0.0000
  O      O         0.000474796511581    0.790743379917272    0.536883736258815  0.0000
  Si     Si        0.640804058061865    0.500211731726400    0.370729455760408  0.0000
  Si     Si        0.728520648574885    0.441728816213944    0.428554172525733  0.0000
  Si     Si        0.727764061389993    0.346192393264835    0.537634412144887  0.0000
  Si     Si        0.249526652123086    0.311859095756246    0.373948266302225  0.0000
  Si     Si        0.728144560818380    0.371626842832462    0.423519094454414  0.0000
  Si     Si        0.192197776804573    0.286876426347927    0.316844259167442  0.0000
  Si     Si        0.695232239411979    0.594531605213099    0.305511569685904  0.0000
  Si     Si        0.656141036397524    0.442143950535862    0.432117559520331  0.0000
  Si     Si        0.655603377413296    0.372570810077733    0.424615114869846  0.0000
  Si     Si        0.637949886707539    0.313861273356462    0.369732150539011  0.0000
  Si     Si        0.696651560193264    0.521197708434932    0.301414909684091  0.0000
  Si     Si        0.695331723654034    0.287260456219636    0.306941811684670  0.0000
  Si     Si        0.655843074825993    0.345431886622734    0.537170450817547  0.0000
  Si     Si        0.594337014957801    0.286360828274492    0.288804429040794  0.0000
  Si     Si        0.121881801096120    0.286490397860632    0.325151182165074  0.0000
  Si     Si        0.728553390874592    0.285567405470267    0.481512426544386  0.0000
  Si     Si        0.035253857346549    0.286855982955761    0.271858627917052  0.0000
  Si     Si        0.656648895093745    0.285615404839649    0.477878124711462  0.0000
  O      O         0.746242697214830    0.465064832292470    0.389273882282244  0.0000
  O      O         0.637484835497573    0.466136360296391    0.395614630834968  0.0000
  O      O         0.214888108153216    0.307981039738019    0.352020570594801  0.0000
  O      O         0.739449710314680    0.446459257234634    0.489430322815118  0.0000
  O      O         0.692309124970542    0.448904681406672    0.424902000812172  0.0000
  O      O         0.735522472014452    0.309676706400103    0.529663372947671  0.0000
  O      O         0.669756687768465    0.502154969885073    0.330604740562271  0.0000
  O      O         0.736437567535105    0.406965678392483    0.408926636634891  0.0000
  O      O         0.691789086948371    0.365076979560850    0.418397835447234  0.0000
  O      O         0.646691674907180    0.445911146565819    0.493856664251360  0.0000
  O      O         0.745579843345026    0.348500990412064    0.382904717204248  0.0000
  O      O         0.667245832720814    0.611937872832720    0.334574529021565  0.0000
  O      O         0.645484680259716    0.365245585882502    0.485475724335798  0.0000
  O      O         0.637725707329511    0.350414789850114    0.383165564622750  0.0000
  O      O         0.690580852930056    0.557588767319638    0.311415999164287  0.0000
  O      O         0.100096324090031    0.308946147614328    0.360376670495328  0.0000
  O      O         0.738186266397548    0.364932548296595    0.484683871530808  0.0000
  O      O         0.647513100904844    0.407929057893775    0.411186588176999  0.0000
  O      O         0.195914353490127    0.295686949779697    0.254885273590716  0.0000
  O      O         0.730032160905312    0.511282026588302    0.323692831570265  0.0000
  O      O         0.691750281541037    0.351728601426248    0.548838681827455  0.0000
  O      O         0.608792936110940    0.505544315213032    0.338960597339316  0.0000
  O      O         0.645698252301788    0.523942604256653    0.419282611317175  0.0000
  O      O         0.115887672783935    0.291913046773134    0.262272487792204  0.0000
  O      O         0.648549469569054    0.309105333555753    0.526486087864067  0.0000
  O      O         0.606376335269205    0.307261545938974    0.337642445289568  0.0000
  O      O         0.728011755454888    0.297623148484218    0.330883145923672  0.0000
  O      O         0.692878340894277    0.289093122901497    0.463178709673184  0.0000
  O      O         0.748960284557036    0.293382568537003    0.429777671122878  0.0000
  O      O         0.558907432046404    0.295947204868509    0.275236527707636  0.0000
  O      O         0.667494304611425    0.305605160022332    0.334122702089783  0.0000
  O      O         0.157518021869532    0.294298425698893    0.337215589309507  0.0000
  O      O         0.637823142605258    0.294077409389033    0.424521285356217  0.0000
  O      O         0.637680698075435    0.357203653799187    0.589708649339538  0.0000
  O      O         0.042149546883095    0.306299945775121    0.324900083984667  0.0000
  Si     Si        0.860145530766147    0.501603572944124    0.870729453347156  0.0000
  Si     Si        0.772428941531401    0.560086488453082    0.928554173606054  0.0000
  Si     Si        0.773185529757304    0.655622911414464    0.037634414599918  0.0000
  Si     Si        0.251422938947747    0.689956208489916    0.873948264470734  0.0000
  Si     Si        0.772805029205247    0.630188461878147    0.923519096783407  0.0000
  Si     Si        0.308751814371266    0.714938879636683    0.816844259758942  0.0000
  Si     Si        0.805717351139182    0.407283699983169    0.805511567413533  0.0000
  Si     Si        0.844808553810001    0.559671354035480    0.932117558810777  0.0000
  Si     Si        0.845346212553530    0.629244494574360    0.924615115071831  0.0000
  Si     Si        0.862999704173824    0.687954031259183    0.869732151507967  0.0000
  Si     Si        0.804298029514666    0.480617597115495    0.801414905069849  0.0000
  Si     Si        0.805617866892287    0.714554849050025    0.806941813524860  0.0000
  Si     Si        0.845106516357494    0.656383417700130    0.037170451678403  0.0000
  Si     Si        0.906612575458736    0.715454475295157    0.788804428679934  0.0000
  Si     Si        0.379067790317226    0.715324904676411    0.825151185159306  0.0000
  Si     Si        0.772396201497657    0.716247899241331    0.981512429575810  0.0000
  Si     Si        0.465695732635073    0.714959338795116    0.771858629606764  0.0000
  Si     Si        0.844300697244913    0.716199899482251    0.977878126694415  0.0000
  O      O         0.754706892634956    0.536750472362705    0.889273883784390  0.0000
  O      O         0.863464754066555    0.535678944430118    0.895614628282100  0.0000
  O      O         0.286061482554759    0.693834264254675    0.852020566356440  0.0000
  O      O         0.761499879760510    0.555356047502722    0.989430323948292  0.0000
  O      O         0.808640465127957    0.552910623076636    0.924902001841536  0.0000
  O      O         0.765427119583017    0.692138598318026    0.029663375426271  0.0000
  O      O         0.831192901733460    0.499660335206255    0.830604737111313  0.0000
  O      O         0.764512022595420    0.594849626338168    0.908926638232617  0.0000
  O      O         0.809160503016118    0.636738325253660    0.918397836774569  0.0000
  O      O         0.854257916332594    0.555904157862767    0.993856663066240  0.0000
  O      O         0.755369746293964    0.653314314499425    0.882904720673297  0.0000
  O      O         0.833703760089089    0.389877435100258    0.834574524420233  0.0000
  O      O         0.855464910290881    0.636569718664595    0.985475724284393  0.0000
  O      O         0.863223882245627    0.651400514630070    0.883165564125608  0.0000
  O      O         0.810368732727567    0.444226538216252    0.811416000581663  0.0000
  O      O         0.400853264513380    0.692869160226677    0.860376689023160  0.0000
  O      O         0.762763324277484    0.636882756052967    0.984683874472322  0.0000
  O      O         0.853436488880238    0.593886246754197    0.911186587641208  0.0000
  O      O         0.305035244152472    0.706128356368063    0.754885273059918  0.0000
  O      O         0.770917428821956    0.490533283175535    0.823692822226294  0.0000
  O      O         0.809199309655118    0.650086703181364    0.048838683395326  0.0000
  O      O         0.892156652381101    0.496270987930334    0.838960594919764  0.0000
  O      O         0.855251335239309    0.477872701147916    0.919282609297121  0.0000
  O      O         0.385061921547467    0.709902239159886    0.762272495500881  0.0000
  O      O         0.852400122464011    0.692709970674408    0.026486089709450  0.0000
  O      O         0.894573255510771    0.694553757536587    0.837642445004269  0.0000
  O      O         0.772937835596935    0.704192155084074    0.830883147425571  0.0000
  O      O         0.808071251431800    0.712722181423128    0.963178712536511  0.0000
  O      O         0.751989308295620    0.708432736760213    0.929777673805908  0.0000
  O      O         0.942042158716370    0.705868099521788    0.775236528250495  0.0000
  O      O         0.833455286570315    0.696210146699695    0.834122704318958  0.0000
  O      O         0.343431568613751    0.707516883954906    0.837215597333067  0.0000
  O      O         0.863126449680389    0.707737894528563    0.924521287200130  0.0000
  O      O         0.863268893053313    0.644611650045904    0.089708649555978  0.0000
  O      O         0.458800034596620    0.695515368994446    0.824900073578000  0.0000
  Si     Si        0.751170716677197    0.610578390753263    0.378721716330011  0.0000
  Si     Si        0.809653632153343    0.522861800137794    0.320897000414144  0.0000
  Si     Si        0.905190053336329    0.523618388158810    0.211816756317968  0.0000
  Si     Si        0.939523350976203    0.001855795352339    0.375502912678282  0.0000
  Si     Si        0.879755605730827    0.523237887425775    0.325932074647119  0.0000
  Si     Si        0.964506023767609    0.059184671437056    0.432606913940009  0.0000
  Si     Si        0.656850843297194    0.556150208507284    0.443939604415891  0.0000
  Si     Si        0.809238498129305    0.595241412177343    0.317333612791552  0.0000
  Si     Si        0.878811638428922    0.595779071671300    0.324836056762262  0.0000
  Si     Si        0.937521175053156    0.613432562128725    0.379719021315157  0.0000
  Si     Si        0.730184739788436    0.554730888656942    0.448036261836584  0.0000
  Si     Si        0.964121994623206    0.556050725255529    0.442509357855482  0.0000
  Si     Si        0.905950560892968    0.595539374835650    0.212280720810600  0.0000
  Si     Si        0.965021619632866    0.657045432633458    0.460646744330415  0.0000
  Si     Si        0.964892044469651    0.129500647804672    0.424299987634036  0.0000
  Si     Si        0.965815041977884    0.522829059086852    0.267938738305811  0.0000
  Si     Si        0.964526498561924    0.216128589721929    0.477592541901166  0.0000
  Si     Si        0.965767042844961    0.594733554295165    0.271573045217703  0.0000
  O      O         0.000474797628498    0.561537273096504    0.432826069989148  0.0000
  O      O         0.786317616191003    0.505139751663976    0.360177291269061  0.0000
  O      O         0.785246087858907    0.613897613567406    0.353836540092983  0.0000
  O      O         0.943401406614317    0.036494338791281    0.397430612181533  0.0000
  O      O         0.804923189294436    0.511932739210721    0.260020850290461  0.0000
  O      O         0.802477767714906    0.559073323775686    0.324549174204364  0.0000
  O      O         0.941705741071385    0.515859979914848    0.219787790857392  0.0000
  O      O         0.749227478730895    0.581625760579438    0.418846430407053  0.0000
  O      O         0.844416770268621    0.514944880340280    0.340524533372146  0.0000
  O      O         0.886305467979111    0.559593361651308    0.331053330144079  0.0000
  O      O         0.805471302438346    0.604690772226510    0.255594507532363  0.0000
  O      O         0.902881458701423    0.505802606663781    0.366546453225632  0.0000
  O      O         0.639444573977290    0.584136614779249    0.414876646948655  0.0000
  O      O         0.886136864037119    0.605897771816684    0.263975449115574  0.0000
  O      O         0.900967658088186    0.613656739325437    0.366285611146337  0.0000
  O      O         0.693793680937845    0.560801596882686    0.438035173591202  0.0000
  O      O         0.942436304575194    0.151286119203567    0.389074469175680  0.0000
  O      O         0.886449900694723    0.513196180229790    0.264767298152705  0.0000
  O      O         0.843453390598393    0.603869348415492    0.338264583572931  0.0000
  O      O         0.955695502725636    0.055468105859774    0.494565902137524  0.0000
  O      O         0.740100420464713    0.521350287696849    0.425758339484291  0.0000
  O      O         0.899653842368738    0.559632168283188    0.200612492280582  0.0000
  O      O         0.745838133507953    0.642589512395447    0.410490576157255  0.0000
  O      O         0.727439843555406    0.605684197265187    0.330168561574891  0.0000
  O      O         0.959469364368545    0.135494782890615    0.487178672669377  0.0000
  O      O         0.942277114670148    0.602832978398438    0.222965080514778  0.0000
  O      O         0.944120902037911    0.645006113777544    0.411808726735230  0.0000
  O      O         0.953759303053124    0.523370694943679    0.418568017399481  0.0000
  O      O         0.962289325500415    0.558504108500477    0.286272459867684  0.0000
  O      O         0.957999878141704    0.502422164345839    0.319673491583278  0.0000
  O      O         0.955435242146793    0.692475014911422    0.474214649232040  0.0000
  O      O         0.945777291653789    0.583888145508706    0.415328470027385  0.0000
  O      O         0.957084029608676    0.093864425209858    0.412235572269518  0.0000
  O      O         0.957305036803737    0.613559306956391    0.324929883956502  0.0000
  O      O         0.894178793775074    0.613701750985586    0.159742521805399  0.0000
  O      O         0.945082522940279    0.209232882980773    0.424551108995645  0.0000
  O      O         0.000474795914625    0.050981843322149    0.423793872298530  0.0000
  O      O         0.000474795780131    0.654840064365086    0.441859085903678  0.0000
  O      O         0.000474795792514    0.603069625997212    0.252696353606645  0.0000
  O      O         0.000474793815033    0.137452157923132    0.409810680923160  0.0000
  O      O         0.000474791307857    0.208172207002745    0.251801513625860  0.0000
  O      O         0.000474795377633    0.515429055771355    0.247366708673490  0.0000
  O      O         0.000474811101349    0.211071934813341    0.462567418329181  0.0000
  Si     Si        0.749778874481452    0.391236911291784    0.878721713551678  0.0000
  Si     Si        0.691295959425911    0.478953503916656    0.820896999436815  0.0000
  Si     Si        0.595759537484409    0.478196916897316    0.711816758111631  0.0000
  Si     Si        0.561426239908892    0.999959509233058    0.875502910411357  0.0000
  Si     Si        0.621193985884321    0.478577416878138    0.825932076551659  0.0000
  Si     Si        0.536443568668378    0.942630633736670    0.932606914816627  0.0000
  Si     Si        0.844098748089575    0.445665095714555    0.943939602443158  0.0000
  Si     Si        0.691711093218884    0.406573891871676    0.817333611188285  0.0000
  Si     Si        0.622137952922998    0.406036233279203    0.824836057006906  0.0000
  Si     Si        0.563428416243372    0.388382742999435    0.879719021782101  0.0000
  Si     Si        0.770764852037463    0.447084414345869    0.948036256910849  0.0000
  Si     Si        0.536827598670621    0.445764580347159    0.942509359701648  0.0000
  Si     Si        0.594999030083978    0.406275930313738    0.712280720541744  0.0000
  Si     Si        0.535927971497047    0.344769871804740    0.960646744677456  0.0000
  Si     Si        0.536057543421159    0.872314657757199    0.924299989589530  0.0000
  Si     Si        0.535134549405781    0.478986246399448    0.767938742446355  0.0000
  Si     Si        0.536423108610555    0.785686715286039    0.977592544634299  0.0000
  Si     Si        0.535182548469733    0.407081750749706    0.771573046448514  0.0000
  O      O         0.500474795792730    0.440278033236630    0.932826069695537  0.0000
  O      O         0.714631975102428    0.496675552056546    0.860177291130868  0.0000
  O      O         0.715703503274317    0.387917689847155    0.853836537393499  0.0000
  O      O         0.557548184166861    0.965320965578044    0.897430608251393  0.0000
  O      O         0.696026402109450    0.489882565362533    0.760020849460398  0.0000
  O      O         0.698471824246757    0.442741980259815    0.824549171843826  0.0000
  O      O         0.559243850401382    0.485955327231311    0.719787795780318  0.0000
  O      O         0.751722113033286    0.420189541781480    0.918846427242597  0.0000
  O      O         0.656532821553814    0.486870423552135    0.840524533906281  0.0000
  O      O         0.614644122887932    0.442221942960789    0.831053335521724  0.0000
  O      O         0.695478288742299    0.397124531534187    0.755594505967725  0.0000
  O      O         0.598068133407870    0.496012699561958    0.866546453665146  0.0000
  O      O         0.861505019865543    0.417678691024602    0.914876644017427  0.0000
  O      O         0.614812728444673    0.395917535502103    0.763975447925632  0.0000
  O      O         0.599981932884960    0.388158563958814    0.866285608578351  0.0000
  O      O         0.807155910878505    0.441013702936650    0.938035173993417  0.0000
  O      O         0.558513287663148    0.850529183475484    0.889074485203012  0.0000
  O      O         0.614499691568289    0.488619122370555    0.764767299422203  0.0000
  O      O         0.657496200737724    0.397945956341731    0.838264583151110  0.0000
  O      O         0.545254091675379    0.946347204031945    0.994565901579942  0.0000
  O      O         0.760849174820546    0.480465015074078    0.925758329941160  0.0000
  O      O         0.601295745873743    0.442183136924689    0.700612489617298  0.0000
  O      O         0.755111456047257    0.359225789107680    0.910490572853896  0.0000
  O      O         0.773509748480315    0.396131103341337    0.830168559379348  0.0000
  O      O         0.541480209036380    0.866320526498196    0.987178679132832  0.0000
  O      O         0.558672476903952    0.398982325190580    0.722965082751747  0.0000
  O      O         0.556828688926378    0.356809191726501    0.911808727733916  0.0000
  O      O         0.547190291027063    0.478444611607283    0.918568023543022  0.0000
  O      O         0.538660266894199    0.443311196593635    0.786272460400395  0.0000
  O      O         0.542949712408110    0.499393140153155    0.819673497513288  0.0000
  O      O         0.545514348703111    0.309340289201105    0.974214647526174  0.0000
  O      O         0.555172301917343    0.417927160790622    0.915328469691086  0.0000
  O      O         0.543865564347693    0.907950879401789    0.912235577353642  0.0000
  O      O         0.543644553177836    0.388255998445027    0.824929885984690  0.0000
  O      O         0.606770797401556    0.388113553663751    0.659742521932771  0.0000
  O      O         0.555867078650523    0.792582413497214    0.924551100882067  0.0000
  O      O         0.500474795931904    0.950833459481724    0.923793874594460  0.0000
  O      O         0.500474795298552    0.346975240947667    0.941859087232857  0.0000
  O      O         0.500474795716328    0.398745679472824    0.752696353629362  0.0000
  O      O         0.500474795829345    0.864363152022850    0.909810660355511  0.0000
  O      O         0.500474795826124    0.793643117500736    0.751801498288593  0.0000
  O      O         0.500474795941903    0.486386249503144    0.747366713145774  0.0000
  O      O         0.500474795584897    0.790743380237372    0.962567439077949  0.0000
  Si     Si        0.860145532259474    0.500211731952463    0.128721716155621  0.0000
  Si     Si        0.772428940447645    0.441728818137731    0.070896993781729  0.0000
  Si     Si        0.773185528130014    0.346192392137483    0.961816756979866  0.0000
  Si     Si        0.251422938724835    0.311859094437869    0.125502907959763  0.0000
  Si     Si        0.772805025485566    0.371626844736108    0.075932071436599  0.0000
  Si     Si        0.308751813589087    0.286876425105280    0.182606915615494  0.0000
  Si     Si        0.805717351206707    0.594531604988657    0.193939602983246  0.0000
  Si     Si        0.844808552716981    0.442143951515323    0.067333610510812  0.0000
  Si     Si        0.845346208687153    0.372570810836241    0.074836053647708  0.0000
  Si     Si        0.862999700971352    0.313861274098707    0.129719016238800  0.0000
  Si     Si        0.804298030253052    0.521197708197829    0.198036262716460  0.0000
  Si     Si        0.805617863108486    0.287260455889439    0.192509358550037  0.0000
  Si     Si        0.845106515195470    0.345431886999993    0.962280717180015  0.0000
  Si     Si        0.906612566558641    0.286360836078143    0.210646748980028  0.0000
  Si     Si        0.379067789460597    0.286490399391601    0.174299989334284  0.0000
  Si     Si        0.772396203864035    0.285567405353098    0.017938747828861  0.0000
  Si     Si        0.465695731829106    0.286855965409336    0.227592544656040  0.0000
  Si     Si        0.844300699962869    0.285615405688579    0.021573041355089  0.0000
  O      O         0.754706891674568    0.465064833500381    0.110177284950891  0.0000
  O      O         0.863464753887186    0.466136360266119    0.103836541199743  0.0000
  O      O         0.286061482054280    0.307981040561034    0.147430608638182  0.0000
  O      O         0.761499879208317    0.446459259611690    0.010020843295252  0.0000
  O      O         0.808640464068094    0.448904683473304    0.074549166193550  0.0000
  O      O         0.765427118282698    0.309676705430167    0.969787802257482  0.0000
  O      O         0.831192903369375    0.502154970069117    0.168846432992593  0.0000
  O      O         0.764512020205744    0.406965680606261    0.090524528707039  0.0000
  O      O         0.809160499053145    0.365076980410786    0.081053330508942  0.0000
  O      O         0.854257916386164    0.445911147462280    0.005594506672457  0.0000
  O      O         0.755369741343682    0.348500993405478    0.116546448419677  0.0000
  O      O         0.833703758611826    0.611937871885193    0.164876644594976  0.0000
  O      O         0.855464907948127    0.365245586023707    0.013975445244201  0.0000
  O      O         0.863223876041465    0.350414790917445    0.116285606909614  0.0000
  O      O         0.810368735860014    0.557588767054006    0.188035170721710  0.0000
  O      O         0.400853263909442    0.308946143616352    0.139074485285166  0.0000
  O      O         0.762763321105095    0.364932549765927    0.014767293827693  0.0000
  O      O         0.853436485801761    0.407929058315426    0.088264581472736  0.0000
  O      O         0.305035243278702    0.295686948432315    0.244565902354335  0.0000
  O      O         0.770917429923622    0.511282024462507    0.175758341610728  0.0000
  O      O         0.809199308055017    0.351728599659453    0.950612487103558  0.0000
  O      O         0.892156654549894    0.505544316270219    0.160490573331369  0.0000
  O      O         0.855251336998889    0.523942604131600    0.080168560590668  0.0000
  O      O         0.385061920849992    0.291913064828792    0.237178678872632  0.0000
  O      O         0.852400123478463    0.309105334229701    0.972965076922980  0.0000
  O      O         0.894573250684183    0.307261552964883    0.161808729378633  0.0000
  O      O         0.772937831526996    0.297623160633874    0.168568040684050  0.0000
  O      O         0.808071254533945    0.289093123904559    0.036272457962329  0.0000
  O      O         0.751989314369276    0.293382567244929    0.069673508016623  0.0000
  O      O         0.942042167419482    0.295947174135470    0.224214585942108  0.0000
  O      O         0.833455283023845    0.305605152300913    0.165328457742483  0.0000
  O      O         0.343431567876835    0.294298420708582    0.162235577822706  0.0000
  O      O         0.863126453513809    0.294077412395371    0.074929878920438  0.0000
  O      O         0.863268891764972    0.357203655417397    0.909742519759177  0.0000
  O      O         0.458800033917381    0.306299935318432    0.174551100757316  0.0000
  Si     Si        0.640804058810946    0.501603572745738    0.628721717412498  0.0000
  Si     Si        0.728520649448409    0.560086488120838    0.570896999444066  0.0000
  Si     Si        0.727764061125586    0.655622910724119    0.461816758825126  0.0000
  Si     Si        0.249526652955125    0.689956208209606    0.625502910550259  0.0000
  Si     Si        0.728144561932356    0.630188461560234    0.575932076621170  0.0000
  Si     Si        0.192197777262327    0.714938879101411    0.682606915036072  0.0000
  Si     Si        0.695232239844352    0.407283699286981    0.693939601800884  0.0000
  Si     Si        0.656141037282918    0.559671353998526    0.567333613705490  0.0000
  Si     Si        0.655603378374361    0.629244494503598    0.574836058525450  0.0000
  Si     Si        0.637949887241420    0.687954031367939    0.629719022481728  0.0000
  Si     Si        0.696651561444131    0.480617596033559    0.698036261855413  0.0000
  Si     Si        0.695331724639930    0.714554849406253    0.692509359946127  0.0000
  Si     Si        0.655843074538066    0.656383417562707    0.462280722175916  0.0000
  Si     Si        0.594337015805187    0.715454475866372    0.710646745075482  0.0000
  Si     Si        0.121881801296204    0.715324904137140    0.674299989625802  0.0000
  Si     Si        0.728553390081333    0.716247898763399    0.517938743728480  0.0000
  Si     Si        0.035253858939095    0.714959337679506    0.727592545243092  0.0000
  Si     Si        0.656648894441553    0.716199899395860    0.521573047341257  0.0000
  O      O         0.746242698596840    0.536750471899567    0.610177288756939  0.0000
  O      O         0.637484836233625    0.535678944133448    0.603836542155327  0.0000
  O      O         0.214888109240618    0.693834263827829    0.647430608311942  0.0000
  O      O         0.739449710462213    0.555356046930718    0.510020848794727  0.0000
  O      O         0.692309125839884    0.552910623067615    0.574549172668055  0.0000
  O      O         0.735522471143562    0.692138597762567    0.469787797315307  0.0000
  O      O         0.669756688979149    0.499660334670361    0.668846431425856  0.0000
  O      O         0.736437568750203    0.594849626000065    0.590524534644841  0.0000
  O      O         0.691789088050503    0.636738324680060    0.581053336127220  0.0000
  O      O         0.646691675835158    0.555904158055800    0.505594509002678  0.0000
  O      O         0.745579844581578    0.653314314223091    0.616546453221760  0.0000
  O      O         0.667245832633268    0.389877431968395    0.664876643821773  0.0000
  O      O         0.645484680136034    0.636569719084891    0.513975449773210  0.0000
  O      O         0.637725709194309    0.651400514627164    0.616285610295267  0.0000
  O      O         0.690580854621726    0.444226537234999    0.688035170693194  0.0000
  O      O         0.100096326926594    0.692869159621843    0.639074486018367  0.0000
  O      O         0.738186267059482    0.636882755938304    0.514767299160185  0.0000
  O      O         0.647513101841092    0.593886246647010    0.588264585154036  0.0000
  O      O         0.195914347786605    0.706128356063231    0.744565901693076  0.0000
  O      O         0.730032162367983    0.490533278306534    0.675758340694407  0.0000
  O      O         0.691750281164145    0.650086702110351    0.450612490839980  0.0000
  O      O         0.608792936989969    0.496270989367018    0.660490576575371  0.0000
  O      O         0.645698252490397    0.477872699946603    0.580168562109671  0.0000
  O      O         0.115887670088680    0.709902239303914    0.737178679424869  0.0000
  O      O         0.648549469266911    0.692709970772299    0.472965083887268  0.0000
  O      O         0.606376335858363    0.694553758061807    0.661808728676168  0.0000
  O      O         0.728011755810533    0.704192155631656    0.668568025118441  0.0000
  O      O         0.692878340241313    0.712722181407816    0.536272461741450  0.0000
  O      O         0.748960283689265    0.708432735910614    0.569673498845352  0.0000
  O      O         0.558907432897134    0.705868099322634    0.724214646732332  0.0000
  O      O         0.667494304834260    0.696210146930047    0.665328469646873  0.0000
  O      O         0.157518023003868    0.707516883070080    0.662235577785991  0.0000
  O      O         0.637823141885292    0.707737894322766    0.574929886569370  0.0000
  O      O         0.637680697566188    0.644611650132262    0.409742524266588  0.0000
  O      O         0.042149556645792    0.695515368491787    0.674551100346995  0.0000
  Si     Si        0.251170717131078    0.610578390496636    0.120729457054136  0.0000
  Si     Si        0.309653631965732    0.522861799476827    0.178554173815392  0.0000
  Si     Si        0.405190054150482    0.523618386820499    0.287634415144503  0.0000
  Si     Si        0.439523351692780    0.001855795179008    0.123948264746148  0.0000
  Si     Si        0.379755605524940    0.523237886718745    0.173519097108382  0.0000
  Si     Si        0.464506022825361    0.059184670550371    0.066844260081251  0.0000
  Si     Si        0.156850844041290    0.556150209247922    0.055511570402058  0.0000
  Si     Si        0.309238497939056    0.595241411618562    0.182117561371584  0.0000
  Si     Si        0.378811638336839    0.595779070263203    0.174615116488299  0.0000
  Si     Si        0.437521174992521    0.613432560987828    0.119732152086748  0.0000
  Si     Si        0.230184740589739    0.554730888352107    0.051414911355673  0.0000
  Si     Si        0.464121992867078    0.556050723726661    0.056941814131461  0.0000
  Si     Si        0.405950561120283    0.595539373411063    0.287170452713617  0.0000
  Si     Si        0.465021619313506    0.657045432282186    0.038804429160268  0.0000
  Si     Si        0.464892047571271    0.129500646532050    0.075151185453231  0.0000
  Si     Si        0.465815042267213    0.522829057837362    0.231512430788598  0.0000
  Si     Si        0.464526482001473    0.216128588874859    0.021858630108195  0.0000
  Si     Si        0.465767042875777    0.594733553444932    0.227878127207564  0.0000
  O      O         0.286317616239109    0.505139751176163    0.139273882526658  0.0000
  O      O         0.285246088293179    0.613897613050012    0.145614633269986  0.0000
  O      O         0.443401407414615    0.036494338756004    0.102020566694267  0.0000
  O      O         0.304923189968740    0.511932737636529    0.239430323810293  0.0000
  O      O         0.302477766903365    0.559073323117511    0.174902002252522  0.0000
  O      O         0.441705741270267    0.515859976854664    0.279663377228626  0.0000
  O      O         0.249227479548801    0.581625760268684    0.080604742858691  0.0000
  O      O         0.344416769927057    0.514944880253684    0.158926638976405  0.0000
  O      O         0.386305468800233    0.559593360622630    0.168397838711412  0.0000
  O      O         0.305471302117235    0.604690772844462    0.243856666271995  0.0000
  O      O         0.402881458150851    0.505802604236188    0.132904719999888  0.0000
  O      O         0.139444575521491    0.584136615418761    0.084574529656571  0.0000
  O      O         0.386136862687176    0.605897768370527    0.235475725474166  0.0000
  O      O         0.400967658347426    0.613656739604893    0.133165564925043  0.0000
  O      O         0.193793681811603    0.560801596985546    0.061415999587961  0.0000
  O      O         0.442436303022888    0.151286120688445    0.110376689502422  0.0000
  O      O         0.386449899820602    0.513196180965736    0.234683874222974  0.0000
  O      O         0.343453390561646    0.603869346851266    0.161186589740183  0.0000
  O      O         0.455695499726504    0.055468100354075    0.004885273350375  0.0000
  O      O         0.240100421088464    0.521350287297105    0.073692833468045  0.0000
  O      O         0.399653845424069    0.559632166767219    0.298838683242686  0.0000
  O      O         0.245838134068127    0.642589512214119    0.088960597598347  0.0000
  O      O         0.227439843961204    0.605684197059662    0.169282611853118  0.0000
  O      O         0.459469381971195    0.135494777698245    0.012272495891643  0.0000
  O      O         0.442277114301405    0.602832978639833    0.276486090813078  0.0000
  O      O         0.444120901887177    0.645006112282808    0.087642445982040  0.0000
  O      O         0.453759300340093    0.523370692387831    0.080883149698444  0.0000
  O      O         0.462289324858662    0.558504107627390    0.213178712706982  0.0000
  O      O         0.457999879437087    0.502422164065624    0.179777675679703  0.0000
  O      O         0.455435242292761    0.692475014984097    0.025236526906753  0.0000
  O      O         0.445777289794467    0.583888143235706    0.084122704469849  0.0000
  O      O         0.457084027098623    0.093864424810871    0.087215597778332  0.0000
  O      O         0.457305038069274    0.613559305922497    0.174521287885540  0.0000
  O      O         0.394178793793948    0.613701749901536    0.339708651356563  0.0000
  O      O         0.445082511505726    0.209232890582216    0.074900073344381  0.0000
  Si     Si        0.249778874940661    0.610578389984643    0.378721718530660  0.0000
  Si     Si        0.191295959121889    0.522861799167628    0.320897000929677  0.0000
  Si     Si        0.095759536840471    0.523618387750159    0.211816757016276  0.0000
  Si     Si        0.061426240275737    0.001855796086244    0.375502912852925  0.0000
  Si     Si        0.121193985552217    0.523237886824759    0.325932076095113  0.0000
  Si     Si        0.036443567904817    0.059184672912798    0.432606911844020  0.0000
  Si     Si        0.344098748203301    0.556150207974587    0.443939604797125  0.0000
  Si     Si        0.191711093837564    0.595241411406734    0.317333614462889  0.0000
  Si     Si        0.122137953581982    0.595779070206541    0.324836058035775  0.0000
  Si     Si        0.063428416872187    0.613432560250373    0.379719022838795  0.0000
  Si     Si        0.270764851572977    0.554730887765880    0.448036263927073  0.0000
  Si     Si        0.036827600167596    0.556050723047228    0.442509359913015  0.0000
  Si     Si        0.094999030107305    0.595539374344104    0.212280721516874  0.0000
  Si     Si        0.035927971853887    0.657045432337370    0.460646744494075  0.0000
  Si     Si        0.036057544503391    0.129500649867681    0.424299981287040  0.0000
  Si     Si        0.035134548647833    0.522829058003342    0.267938740068459  0.0000
  Si     Si        0.036423121935801    0.216128588025458    0.477592558315202  0.0000
  Si     Si        0.035182548313227    0.594733553995158    0.271573046952427  0.0000
  O      O         0.214631975081884    0.505139750714505    0.360177291661262  0.0000
  O      O         0.215703503583825    0.613897612338464    0.353836543273385  0.0000
  O      O         0.057548184838067    0.036494340182025    0.397430609515859  0.0000
  O      O         0.196026401946067    0.511932738241870    0.260020850675552  0.0000
  O      O         0.198471823764952    0.559073322803872    0.324549174372450  0.0000
  O      O         0.059243850211697    0.515859975980156    0.219787794972823  0.0000
  O      O         0.251722113074977    0.581625760377871    0.418846433718715  0.0000
  O      O         0.156532821007618    0.514944879273239    0.340524534144432  0.0000
  O      O         0.114644123305824    0.559593360706233    0.331053338774946  0.0000
  O      O         0.195478290627690    0.604690772415222    0.255594509750995  0.0000
  O      O         0.098068132158337    0.505802603296495    0.366546450258411  0.0000
  O      O         0.361505016634017    0.584136614621827    0.414876646815362  0.0000
  O      O         0.114812730068003    0.605897766836062    0.263975448282854  0.0000
  O      O         0.099981933147699    0.613656740699373    0.366285607363968  0.0000
  O      O         0.307155910446871    0.560801595188669    0.438035174512286  0.0000
  O      O         0.058513279287714    0.151286121085491    0.389074452428738  0.0000
  O      O         0.114499691971627    0.513196183359172    0.264767297727051  0.0000
  O      O         0.157496201207847    0.603869347434095    0.338264584994977  0.0000
  O      O         0.045254090727495    0.055468107908003    0.494565899524584  0.0000
  O      O         0.260849169856625    0.521350287200799    0.425758341249600  0.0000
  O      O         0.101295743411976    0.559632167759546    0.200612487607223  0.0000
  O      O         0.255111458346293    0.642589511978729    0.410490577167267  0.0000
  O      O         0.273509747680402    0.605684195934474    0.330168563199794  0.0000
  O      O         0.041480230531413    0.135494787729077    0.487178663734417  0.0000
  O      O         0.058672477517941    0.602832981397111    0.222965085515718  0.0000
  O      O         0.056828689464846    0.645006111557528    0.411808728642787  0.0000
  O      O         0.047190290503390    0.523370691303008    0.418568022328732  0.0000
  O      O         0.038660266970302    0.558504107846976    0.286272457187931  0.0000
  O      O         0.042949710269336    0.502422164560257    0.319673495846644  0.0000
  O      O         0.045514350082379    0.692475014658208    0.474214647538828  0.0000
  O      O         0.055172305185799    0.583888141964283    0.415328471337661  0.0000
  O      O         0.043865559921013    0.093864426927637    0.412235568664368  0.0000
  O      O         0.043644552076859    0.613559304277038    0.324929889020002  0.0000
  O      O         0.106770797970234    0.613701751396298    0.159742523920946  0.0000
  O      O         0.055867109140666    0.209232878073781    0.424551137448387  0.0000
  Si     Si        0.360145533616786    0.501603573260843    0.628721717934784  0.0000
  Si     Si        0.272428942839659    0.560086488109279    0.570897001417320  0.0000
  Si     Si        0.273185530659770    0.655622910537195    0.461816759606485  0.0000
  Si     Si        0.751422938968341    0.689956208072166    0.625502909872402  0.0000
  Si     Si        0.272805030179306    0.630188461656734    0.575932077526654  0.0000
  Si     Si        0.808751814460047    0.714938879308943    0.682606913989357  0.0000
  Si     Si        0.305717352535633    0.407283700047224    0.693939604373905  0.0000
  Si     Si        0.344808555008445    0.559671354212595    0.567333613991235  0.0000
  Si     Si        0.345346213810171    0.629244494622134    0.574836058532936  0.0000
  Si     Si        0.362999704636199    0.687954031446236    0.629719022448533  0.0000
  Si     Si        0.304298031290500    0.480617596614316    0.698036263483083  0.0000
  Si     Si        0.305617867251613    0.714554849365667    0.692509360389031  0.0000
  Si     Si        0.345106517261881    0.656383417492350    0.462280722230027  0.0000
  Si     Si        0.406612575902936    0.715454475825726    0.710646745219374  0.0000
  Si     Si        0.879067790475460    0.715324904117933    0.674299988445527  0.0000
  Si     Si        0.272396201742550    0.716247898657873    0.517938744027783  0.0000
  Si     Si        0.965695732601813    0.714959337793288    0.727592544713969  0.0000
  Si     Si        0.344300697367343    0.716199899331553    0.521573047284958  0.0000
  O      O         0.254706894327366    0.536750472375584    0.610177292496721  0.0000
  O      O         0.363464756330147    0.535678944506304    0.603836542161515  0.0000
  O      O         0.786061482611515    0.693834263811327    0.647430607620638  0.0000
  O      O         0.261499881474748    0.555356045892210    0.510020851273964  0.0000
  O      O         0.308640466509835    0.552910623387999    0.574549173812359  0.0000
  O      O         0.265427120724551    0.692138597646373    0.469787797666186  0.0000
  O      O         0.331192903152939    0.499660335484492    0.668846431621748  0.0000
  O      O         0.264512023370202    0.594849626134702    0.590524535628616  0.0000
  O      O         0.309160504100814    0.636738324690183    0.581053336253598  0.0000
  O      O         0.354257916044095    0.555904158113007    0.505594509080129  0.0000
  O      O         0.255369747727528    0.653314314365402    0.616546454503498  0.0000
  O      O         0.333703759067487    0.389877431772332    0.664876645730280  0.0000
  O      O         0.355464912060637    0.636569719213643    0.513975449727586  0.0000
  O      O         0.363223882942658    0.651400514733927    0.616285610202840  0.0000
  O      O         0.310368739658223    0.444226537847226    0.688035174747327  0.0000
  O      O         0.900853264528776    0.692869159956400    0.639074483487854  0.0000
  O      O         0.262763324688341    0.636882756076125    0.514767300336197  0.0000
  O      O         0.353436490581963    0.593886246852504    0.588264585098685  0.0000
  O      O         0.805035244511114    0.706128356246508    0.744565900732448  0.0000
  O      O         0.270917430100944    0.490533277338633    0.675758341994683  0.0000
  O      O         0.309199310626380    0.650086701800662    0.450612491652302  0.0000
  O      O         0.392156655242219    0.496270990094714    0.660490577536498  0.0000
  O      O         0.355251340490797    0.477872700257118    0.580168562780916  0.0000
  O      O         0.885061921923081    0.709902237839116    0.737178677739646  0.0000
  O      O         0.352400122497071    0.692709970721581    0.472965083697177  0.0000
  O      O         0.394573255936464    0.694553758260702    0.661808728569257  0.0000
  O      O         0.272937835960901    0.704192156247996    0.668568025417740  0.0000
  O      O         0.308071251565285    0.712722181343505    0.536272461935179  0.0000
  O      O         0.251989308083674    0.708432735807921    0.569673499232878  0.0000
  O      O         0.442042158709323    0.705868099043355    0.724214647096622  0.0000
  O      O         0.333455286889025    0.696210146680715    0.665328469724391  0.0000
  O      O         0.843431568723136    0.707516883738319    0.662235576108054  0.0000
  O      O         0.363126449899102    0.707737894372295    0.574929886478873  0.0000
  O      O         0.363268893892991    0.644611649969659    0.409742523891992  0.0000
  O      O         0.958800033915557    0.695515366535523    0.674551102416505  0.0000
  Si     Si        0.140804058438479    0.500211732133055    0.128721717369593  0.0000
  Si     Si        0.228520649371915    0.441728815438845    0.070897000714944  0.0000
  Si     Si        0.227764061351978    0.346192393190656    0.961816758417667  0.0000
  Si     Si        0.749526650982623    0.311859099687278    0.125502912767155  0.0000
  Si     Si        0.228144561014072    0.371626841770873    0.075932077337578  0.0000
  Si     Si        0.692197775879646    0.286876425212428    0.182606912529037  0.0000
  Si     Si        0.195232240113570    0.594531605067035    0.193939605157382  0.0000
  Si     Si        0.156141037088993    0.442143950928452    0.067333613551761  0.0000
  Si     Si        0.155603377260781    0.372570811029022    0.074836056971322  0.0000
  Si     Si        0.137949888570799    0.313861275271058    0.129719024813359  0.0000
  Si     Si        0.196651560318710    0.521197708417351    0.198036263545357  0.0000
  Si     Si        0.195331723834063    0.287260456048239    0.192509361040641  0.0000
  Si     Si        0.155843074671784    0.345431886919222    0.962280721787830  0.0000
  Si     Si        0.094337009688116    0.286360832317671    0.210646741589262  0.0000
  Si     Si        0.621881799832638    0.286490399278930    0.174299988889191  0.0000
  Si     Si        0.228553391478109    0.285567405359792    0.017938740838583  0.0000
  Si     Si        0.535253858055275    0.286855965481646    0.227592545000755  0.0000
  Si     Si        0.156648896035706    0.285615405649947    0.021573049793537  0.0000
  O      O         0.246242697688740    0.465064831658944    0.110177291323412  0.0000
  O      O         0.137484836086668    0.466136360868283    0.103836541780478  0.0000
  O      O         0.714888106211442    0.307981040698111    0.147430603093973  0.0000
  O      O         0.239449710667399    0.446459258104319    0.010020850537842  0.0000
  O      O         0.192309125777535    0.448904680309272    0.074549173789977  0.0000
  O      O         0.235522471636722    0.309676705964865    0.969787793478275  0.0000
  O      O         0.169756687808578    0.502154969935111    0.168846433044067  0.0000
  O      O         0.236437569036587    0.406965677328421    0.090524534372836  0.0000
  O      O         0.191789086820443    0.365076980703232    0.081053335075709  0.0000
  O      O         0.146691676347186    0.445911147398150    0.005594508789154  0.0000
  O      O         0.245579841562017    0.348500988286533    0.116546455445444  0.0000
  O      O         0.167245833267967    0.611937873685477    0.164876648133496  0.0000
  O      O         0.145484679781515    0.365245586715687    0.013975447663659  0.0000
  O      O         0.137725707654336    0.350414791347508    0.116285608279198  0.0000
  O      O         0.190580853029318    0.557588767302683    0.188035173985782  0.0000
  O      O         0.600096325808700    0.308946143615670    0.139074484732453  0.0000
  O      O         0.238186267141865    0.364932546374988    0.014767300671188  0.0000
  O      O         0.147513100335601    0.407929058638979    0.088264584153190  0.0000
  O      O         0.695914346911641    0.295686949038791    0.244565898871542  0.0000
  O      O         0.230032160936824    0.511282026452705    0.175758341219895  0.0000
  O      O         0.191750281383851    0.351728601967625    0.950612490497374  0.0000
  O      O         0.108792936233622    0.505544315563223    0.160490575042191  0.0000
  O      O         0.145698253138186    0.523942604794705    0.080168562369652  0.0000
  O      O         0.615887669052243    0.291913065248639    0.237178678523831  0.0000
  O      O         0.148549469366330    0.309105333992904    0.972965086725674  0.0000
  O      O         0.106376337516398    0.307261548218328    0.161808729719766  0.0000
  O      O         0.228011755903610    0.297623141663013    0.168568018602955  0.0000
  O      O         0.192878342141009    0.289093124045184    0.036272461353616  0.0000
  O      O         0.248960286938496    0.293382568558812    0.069673493975110  0.0000
  O      O         0.058907435127380    0.295947233283670    0.224214657227024  0.0000
  O      O         0.167494306739387    0.305605164639427    0.165328474269836  0.0000
  O      O         0.657518021389125    0.294298419811611    0.162235575737525  0.0000
  O      O         0.137823145442543    0.294077410088617    0.074929891195363  0.0000
  O      O         0.137680698209115    0.357203653616396    0.909742522594441  0.0000
  O      O         0.542149556090556    0.306299935621692    0.174551101365040  0.0000
  Si     Si        0.249778875555078    0.391236914316224    0.620729457196379  0.0000
  Si     Si        0.191295957727097    0.478953505441444    0.678554173161781  0.0000
  Si     Si        0.095759537003526    0.478196918222003    0.787634417541711  0.0000
  Si     Si        0.061426241950822    0.999959508112628    0.623948261777100  0.0000
  Si     Si        0.121193983928068    0.478577416660035    0.673519097546164  0.0000
  Si     Si        0.036443568656859    0.942630632674837    0.566844261524385  0.0000
  Si     Si        0.344098748393908    0.445665096397773    0.555511569692934  0.0000
  Si     Si        0.191711094455201    0.406573893201279    0.682117561536588  0.0000
  Si     Si        0.122137954776041    0.406036232318359    0.674615120114752  0.0000
  Si     Si        0.063428419061387    0.388382747581456    0.619732150562994  0.0000
  Si     Si        0.270764851696072    0.447084416583799    0.551414911510105  0.0000
  Si     Si        0.036827599553995    0.445764580908892    0.556941814013596  0.0000
  Si     Si        0.094999030203098    0.406275931418978    0.787170453583081  0.0000
  Si     Si        0.035927973492339    0.344769863655257    0.538804440323335  0.0000
  Si     Si        0.036057543178188    0.872314656741551    0.575151186539862  0.0000
  Si     Si        0.035134548629878    0.478986250803208    0.731512439107328  0.0000
  Si     Si        0.036423109418931    0.785686715125782    0.521858629045529  0.0000
  Si     Si        0.035182548586568    0.407081755631239    0.727878125521865  0.0000
  O      O         0.214631974327430    0.496675554043257    0.639273883421541  0.0000
  O      O         0.215703504448769    0.387917692153973    0.645614633514195  0.0000
  O      O         0.057548184382272    0.965320963591378    0.602020569359301  0.0000
  O      O         0.196026400541132    0.489882565966972    0.739430323584851  0.0000
  O      O         0.198471822566862    0.442741981902720    0.674901998570236  0.0000
  O      O         0.059243849340187    0.485955328268190    0.779663387664181  0.0000
  O      O         0.251722113453556    0.420189543685835    0.580604741508366  0.0000
  O      O         0.156532819435148    0.486870425329948    0.658926640244433  0.0000
  O      O         0.114644124675677    0.442221941996933    0.668397844198961  0.0000
  O      O         0.195478291499314    0.397124533642584    0.743856666649004  0.0000
  O      O         0.098068129669798    0.496012694354951    0.632904716646705  0.0000
  O      O         0.361505016925767    0.417678689525307    0.584574526791268  0.0000
  O      O         0.114812729922464    0.395917534131317    0.735475728911533  0.0000
  O      O         0.099981934949074    0.388158563235116    0.633165568298763  0.0000
  O      O         0.307155910620154    0.441013709514547    0.561416000953981  0.0000
  O      O         0.058513287089132    0.850529182791990    0.610376691789680  0.0000
  O      O         0.114499687553534    0.488619125197969    0.734683872877067  0.0000
  O      O         0.157496202218348    0.397945955115904    0.661186592458862  0.0000
  O      O         0.045254091801397    0.946347202702639    0.504885274777053  0.0000
  O      O         0.260849169407599    0.480465016955894    0.573692834377931  0.0000
  O      O         0.101295747367299    0.442183138110196    0.798838682313456  0.0000
  O      O         0.255111458652455    0.359225792128939    0.588960599138614  0.0000
  O      O         0.273509748391866    0.396131108590607    0.669282611991617  0.0000
  O      O         0.041480209950772    0.866320525445601    0.512272497307668  0.0000
  O      O         0.058672476868197    0.398982328098098    0.776486088186268  0.0000
  O      O         0.056828689359453    0.356809197132265    0.587642446884974  0.0000
  O      O         0.047190275931687    0.478444614133456    0.580883164695977  0.0000
  O      O         0.038660266485332    0.443311201890423    0.713178715360569  0.0000
  O      O         0.042949713104182    0.499393148008873    0.679777688389098  0.0000
  O      O         0.045514390038234    0.309340294193034    0.525236517566232  0.0000
  O      O         0.055172312956580    0.417927166814323    0.584122700651149  0.0000
  O      O         0.043865563603178    0.907950878405972    0.587215599251881  0.0000
  O      O         0.043644552880318    0.388256006350212    0.674521282928770  0.0000
  O      O         0.106770795912078    0.388113555300094    0.839708653917832  0.0000
  O      O         0.055867080239032    0.792582413734714    0.574900071715268  0.0000
  Si     Si        0.251170716948755    0.391236914445036    0.878721718083877  0.0000
  Si     Si        0.309653632187671    0.478953505053218    0.820897000601056  0.0000
  Si     Si        0.405190054323441    0.478196917587825    0.711816759228435  0.0000
  Si     Si        0.439523351947027    0.999959509036693    0.875502910655446  0.0000
  Si     Si        0.379755605726318    0.478577417585645    0.825932077500263  0.0000
  Si     Si        0.464506023190878    0.942630633660051    0.932606915006438  0.0000
  Si     Si        0.156850844184114    0.445665095832505    0.943939604562466  0.0000
  Si     Si        0.309238498033744    0.406573892905705    0.817333613173229  0.0000
  Si     Si        0.378811638340500    0.406036234036257    0.824836057919482  0.0000
  Si     Si        0.437521174956510    0.388382743260972    0.879719022041106  0.0000
  Si     Si        0.230184740462940    0.447084416269660    0.948036263336086  0.0000
  Si     Si        0.464121992889332    0.445764580426468    0.942509359809885  0.0000
  Si     Si        0.405950561302090    0.406275930999559    0.712280721552407  0.0000
  Si     Si        0.465021619042942    0.344769871759418    0.960646744742215  0.0000
  Si     Si        0.464892048175062    0.872314657686332    0.924299989620475  0.0000
  Si     Si        0.465815042474137    0.478986246559626    0.767938742983295  0.0000
  Si     Si        0.464526482536180    0.785686715302763    0.977592544806746  0.0000
  Si     Si        0.465767043019228    0.407081750954212    0.771573046879383  0.0000
  O      O         0.286317616364422    0.496675553251028    0.860177292109710  0.0000
  O      O         0.285246087782651    0.387917691599875    0.853836540352695  0.0000
  O      O         0.443401407717863    0.965320965425627    0.897430608537071  0.0000
  O      O         0.304923190226247    0.489882567065276    0.760020850705881  0.0000
  O      O         0.302477767036759    0.442741981434895    0.824549172008196  0.0000
  O      O         0.441705741496533    0.485955327483512    0.719787796609137  0.0000
  O      O         0.249227480253344    0.420189544528943    0.918846432756055  0.0000
  O      O         0.344416770090990    0.486870424178087    0.840524535531152  0.0000
  O      O         0.386305468876612    0.442221943655366    0.831053335763765  0.0000
  O      O         0.305471302836924    0.397124531606733    0.755594508302679  0.0000
  O      O         0.402881458328922    0.496012699965145    0.866546454595949  0.0000
  O      O         0.139444575068762    0.417678689032519    0.914876648174947  0.0000
  O      O         0.386136862662506    0.395917536024951    0.763975448763809  0.0000
  O      O         0.400967658344960    0.388158564604359    0.866285609197803  0.0000
  O      O         0.193793681830541    0.441013707146031    0.938035174353514  0.0000
  O      O         0.442436303972631    0.850529183482429    0.889074485181522  0.0000
  O      O         0.386449900170825    0.488619123424332    0.764767300467311  0.0000
  O      O         0.343453390531858    0.397945957602922    0.838264585227121  0.0000
  O      O         0.455695500163206    0.946347203996687    0.994565901794149  0.0000
  O      O         0.240100420569197    0.480465017248377    0.925758340342474  0.0000
  O      O         0.399653845592356    0.442183137651863    0.700612491112628  0.0000
  O      O         0.245838134048638    0.359225792731732    0.910490577251812  0.0000
  O      O         0.227439842726742    0.396131108182176    0.830168565245626  0.0000
  O      O         0.459469382357291    0.866320526364980    0.987178679118358  0.0000
  O      O         0.442277114454271    0.398982325756055    0.722965083472547  0.0000
  O      O         0.444120901826230    0.356809191904388    0.911808727916985  0.0000
  O      O         0.453759300678457    0.478444611782830    0.918568023974048  0.0000
  O      O         0.462289325046319    0.443311196793895    0.786272461231253  0.0000
  O      O         0.457999879510392    0.499393140364185    0.819673498054266  0.0000
  O      O         0.455435241659481    0.309340289146444    0.974214647090859  0.0000
  O      O         0.445777289649283    0.417927160963387    0.915328469796816  0.0000
  O      O         0.457084027448634    0.907950879374577    0.912235577525696  0.0000
  O      O         0.457305038166559    0.388255998489107    0.824929886237772  0.0000
  O      O         0.394178794315364    0.388113554638512    0.659742522623140  0.0000
  O      O         0.445082512562234    0.792582413576802    0.924551101160177  0.0000
  Si     Si        0.140804059133246    0.501603573496464    0.870729457438110  0.0000
  Si     Si        0.228520649276515    0.560086488557082    0.928554174380399  0.0000
  Si     Si        0.227764061614779    0.655622911068414    0.037634415613563  0.0000
  Si     Si        0.749526652471848    0.689956208332407    0.873948263384297  0.0000
  Si     Si        0.228144561811308    0.630188462064381    0.923519097481674  0.0000
  Si     Si        0.692197777099975    0.714938879718477    0.816844259484100  0.0000
  Si     Si        0.195232239305070    0.407283700504538    0.805511571309947  0.0000
  Si     Si        0.156141037099330    0.559671354703232    0.932117561750954  0.0000
  Si     Si        0.155603378374538    0.629244494920857    0.924615116593149  0.0000
  Si     Si        0.137949887199671    0.687954031451714    0.869732152402954  0.0000
  Si     Si        0.196651560361619    0.480617596832179    0.801414911103525  0.0000
  Si     Si        0.195331724499763    0.714554849048517    0.806941814429446  0.0000
  Si     Si        0.155843075000916    0.656383417955086    0.037170453112933  0.0000
  Si     Si        0.094337015467107    0.715454475265254    0.788804429659285  0.0000
  Si     Si        0.621881801156609    0.715324904691310    0.825151185051888  0.0000
  Si     Si        0.228553390340002    0.716247899080259    0.981512431189941  0.0000
  Si     Si        0.535253858933989    0.714959338796918    0.771858629557212  0.0000
  Si     Si        0.156648894628820    0.716199899536867    0.977878127598456  0.0000
  O      O         0.246242697418809    0.536750472605557    0.889273883028610  0.0000
  O      O         0.137484835958451    0.535678944482907    0.895614634290706  0.0000
  O      O         0.714888108807591    0.693834264284813    0.852020565996883  0.0000
  O      O         0.239449711362943    0.555356046726442    0.989430324246341  0.0000
  O      O         0.192309125631860    0.552910623520222    0.924902003342496  0.0000
  O      O         0.235522471872912    0.692138598082191    0.029663377214229  0.0000
  O      O         0.169756688929185    0.499660336713484    0.830604742231781  0.0000
  O      O         0.236437568404021    0.594849626449273    0.908926639332633  0.0000
  O      O         0.191789087968472    0.636738325453121    0.918397838189941  0.0000
  O      O         0.146691675464626    0.555904159704663    0.993856666509207  0.0000
  O      O         0.245579844595549    0.653314314641089    0.882904720924315  0.0000
  O      O         0.167245831350815    0.389877432219550    0.834574526088936  0.0000
  O      O         0.145484680618574    0.636569719062239    0.985475725895813  0.0000
  O      O         0.137725708714561    0.651400514893698    0.883165565584330  0.0000
  O      O         0.190580852338793    0.444226538283736    0.811416002866532  0.0000
  O      O         0.600096326948322    0.692869160314252    0.860376689145372  0.0000
  O      O         0.238186267108363    0.636882756304291    0.984683874834519  0.0000
  O      O         0.147513101948289    0.593886247134019    0.911186589245981  0.0000
  O      O         0.695914347511953    0.706128356708975    0.754885272701363  0.0000
  O      O         0.230032161515595    0.490533278266406    0.823692831756985  0.0000
  O      O         0.191750281666689    0.650086702928244    0.048838684218923  0.0000
  O      O         0.108792937521774    0.496270990152915    0.838960598534623  0.0000
  O      O         0.145698253519633    0.477872699963265    0.919282611100270  0.0000
  O      O         0.615887669899448    0.709902239157783    0.762272495478506  0.0000
  O      O         0.148549469194984    0.692709970947075    0.026486090824576  0.0000
  O      O         0.106376335870948    0.694553758057681    0.837642446280528  0.0000
  O      O         0.228011755757009    0.704192156018911    0.830883149531396  0.0000
  O      O         0.192878340500428    0.712722181340554    0.963178713695076  0.0000
  O      O         0.248960283790312    0.708432736416934    0.929777675580197  0.0000
  O      O         0.058907432996633    0.705868097376028    0.775236527223356  0.0000
  O      O         0.167494304856709    0.696210146202459    0.834122704615856  0.0000
  O      O         0.657518022841486    0.707516883885839    0.837215596947490  0.0000
  O      O         0.137823142310654    0.707737894829036    0.924521287997913  0.0000
  O      O         0.137680698534414    0.644611650796073    0.089708651746671  0.0000
  O      O         0.542149557061513    0.695515368729570    0.824900073166146  0.0000
  Si     Si        0.360145533592581    0.500211731106812    0.370729456522492  0.0000
  Si     Si        0.272428942704191    0.441728815956265    0.428554173968529  0.0000
  Si     Si        0.273185530860578    0.346192393413874    0.537634416581315  0.0000
  Si     Si        0.751422938717674    0.311859096840098    0.373948260127091  0.0000
  Si     Si        0.272805029922468    0.371626842455428    0.423519098451248  0.0000
  Si     Si        0.808751814791779    0.286876423900519    0.316844261053004  0.0000
  Si     Si        0.305717351874962    0.594531604546310    0.305511570341273  0.0000
  Si     Si        0.344808554918588    0.442143950006358    0.432117560388104  0.0000
  Si     Si        0.345346213525027    0.372570809632152    0.424615116433886  0.0000
  Si     Si        0.362999703861339    0.313861272677978    0.369732152407142  0.0000
  Si     Si        0.304298031436154    0.521197707939975    0.301414911078286  0.0000
  Si     Si        0.305617866265076    0.287260455423236    0.306941815066321  0.0000
  Si     Si        0.345106517453597    0.345431886518121    0.537170452892588  0.0000
  Si     Si        0.406612575007440    0.286360828164822    0.288804429144545  0.0000
  Si     Si        0.879067793764210    0.286490405328381    0.325151199003509  0.0000
  Si     Si        0.272396201593957    0.285567405344899    0.481512432441861  0.0000
  Si     Si        0.965695729245712    0.286855982616853    0.271858616650366  0.0000
  Si     Si        0.344300697327695    0.285615404671426    0.477878127957357  0.0000
  O      O         0.254706894306848    0.465064831803931    0.389273883068984  0.0000
  O      O         0.363464756036752    0.466136359725672    0.395614631783882  0.0000
  O      O         0.786061482349780    0.307981043421291    0.352020559389430  0.0000
  O      O         0.261499881698402    0.446459258581275    0.489430324261551  0.0000
  O      O         0.308640466384144    0.448904680383568    0.424902000594038  0.0000
  O      O         0.265427120220779    0.309676706528647    0.529663378429374  0.0000
  O      O         0.331192903669954    0.502154969268384    0.330604742034135  0.0000
  O      O         0.264512022774088    0.406965677938126    0.408926640494203  0.0000
  O      O         0.309160503834956    0.365076979779118    0.418397837968046  0.0000
  O      O         0.354257915866249    0.445911146544976    0.493856665170689  0.0000
  O      O         0.255369746915873    0.348500989580867    0.382904722756011  0.0000
  O      O         0.333703758406181    0.611937872887691    0.334574528773584  0.0000
  O      O         0.355464911335193    0.365245585263882    0.485475725410105  0.0000
  O      O         0.363223882861536    0.350414789278701    0.383165565364984  0.0000
  O      O         0.310368739249248    0.557588766780937    0.311416000038932  0.0000
  O      O         0.900853257605189    0.308946132387391    0.360376757897294  0.0000
  O      O         0.262763325350576    0.364932548292202    0.484683876192549  0.0000
  O      O         0.353436490724459    0.407929057306398    0.411186589781976  0.0000
  O      O         0.805035255294182    0.295686945985108    0.254885272267101  0.0000
  O      O         0.270917430628416    0.511282026663437    0.323692833423749  0.0000
  O      O         0.309199310845482    0.351728601402683    0.548838684911920  0.0000
  O      O         0.392156655428429    0.505544314410314    0.338960597363476  0.0000
  O      O         0.355251339926230    0.523942603885900    0.419282611935570  0.0000
  O      O         0.885061943852571    0.291913114758067    0.262272526115386  0.0000
  O      O         0.352400123262653    0.309105333463795    0.526486090792488  0.0000
  O      O         0.394573254983255    0.307261545795251    0.337642445652505  0.0000
  O      O         0.272937834845074    0.297623148268418    0.330883150192296  0.0000
  O      O         0.308071251448036    0.289093123010491    0.463178714800964  0.0000
  O      O         0.251989308164193    0.293382567757101    0.429777677035701  0.0000
  O      O         0.442042157834164    0.295947204962549    0.275236527303270  0.0000
  O      O         0.333455285743566    0.305605158319028    0.334122705683502  0.0000
  O      O         0.843431568614858    0.294298411977736    0.337215608321462  0.0000
  O      O         0.363126449245108    0.294077409248268    0.424521287826818  0.0000
  O      O         0.363268894370922    0.357203654241038    0.589708650685358  0.0000
  O      O         0.958799999999997    0.306299999999965    0.324899999999957  0.0000
