data_ReferenceDataBase/PWN
_audit_creation_method             Generated by GULP
_audit_author_name                 Salvador R. G. Balestra
_symmetry_space_group_name_H-M     'P 1             '
_symmetry_Int_Tables_number        1

loop_
_symmetry_equiv_pos_site_id
_symmetry_equiv_pos_as_xyz
   1     +x,+y,+z                
_cell_length_a                       24.5855
_cell_length_b                       24.5855
_cell_length_c                       24.5855
_cell_angle_alpha                   90.0000
_cell_angle_beta                    90.0000
_cell_angle_gamma                   90.0000

loop_
_atom_site_label
_atom_site_type_symbol
_atom_site_fract_x
_atom_site_fract_y
_atom_site_fract_z
_atom_site_charge
  Si     Si        0.359440091583900    0.149772463848464    0.063039657269782  0.0000
  Si     Si        0.234758036177825    0.150048538062949    0.062872823457396  0.0000
  Si     Si        0.433446934303177    0.249642159935230    0.063561779643328  0.0000
  O      O         0.297082454584881    0.167802913088017    0.071756569879572  0.0000
  O      O         0.397518759061077    0.198814257527763    0.082443374485383  0.0000
  O      O         0.371249441467798    0.134305594808976    0.000721087927138  0.0000
  O      O         0.496287660347570    0.235050427366016    0.074235451099289  0.0000
  O      O         0.224456488196612    0.132240003727815    0.000721029058033  0.0000
  O      O         0.373981086944604    0.096822497255070    0.097901420921219  0.0000
  O      O         0.198203608716071    0.201558039416629    0.079295814942646  0.0000
  O      O         0.218771269284089    0.098766698504943    0.099845629183077  0.0000
  Si     Si        0.846157420447482    0.362794567167432    0.063039618636348  0.0000
  Si     Si        0.845881254720140    0.238112516368296    0.062872862089792  0.0000
  Si     Si        0.746287730326781    0.436801415391104    0.063561813878292  0.0000
  O      O         0.828126908178773    0.300436950546670    0.071756570624194  0.0000
  O      O         0.797115697219188    0.400873309488856    0.082443368151736  0.0000
  O      O         0.861624247624332    0.374603873180381    0.000721030591710  0.0000
  O      O         0.760879392636837    0.499642159644914    0.074235450727941  0.0000
  O      O         0.863689828746168    0.227810933238469    0.000721084892949  0.0000
  O      O         0.899107440592335    0.377335504852219    0.097901326509128  0.0000
  O      O         0.794371717779911    0.201558124908285    0.079295826344148  0.0000
  O      O         0.897163054520824    0.222125727683907    0.099845710374497  0.0000
  Si     Si        0.633135311064781    0.849511800557615    0.063039660395438  0.0000
  Si     Si        0.757817363149406    0.849235723557834    0.062872827767011  0.0000
  Si     Si        0.559128459268034    0.749642109250886    0.063561777142703  0.0000
  O      O         0.695492945861720    0.831481341741420    0.071756579837146  0.0000
  O      O         0.595056627382562    0.800470016184467    0.082443373101782  0.0000
  O      O         0.621325973647068    0.864978673944531    0.000721089031529  0.0000
  O      O         0.496287732442840    0.764233821357444    0.074235450377411  0.0000
  O      O         0.768118906222833    0.867044258389355    0.000721033270290  0.0000
  O      O         0.618594323702393    0.902461769794349    0.097901423548885  0.0000
  O      O         0.794371796687694    0.797726225857357    0.079295817978044  0.0000
  O      O         0.773804130523746    0.900517565452379    0.099845629353246  0.0000
  Si     Si        0.146417990277770    0.636489706047970    0.063039617049512  0.0000
  Si     Si        0.146694154821762    0.761171756528646    0.062872860760235  0.0000
  Si     Si        0.246287680412711    0.562482858897115    0.063561810469224  0.0000
  O      O         0.164448500990339    0.698847322653982    0.071756570823284  0.0000
  O      O         0.195459714457552    0.598410964930217    0.082443366434141  0.0000
  O      O         0.130951165121334    0.624680400605435    0.000721028659421  0.0000
  O      O         0.231696017775333    0.499642114784761    0.074235448096074  0.0000
  O      O         0.128885580651052    0.771473338047776    0.000721083331945  0.0000
  O      O         0.093467970000998    0.621948766585189    0.097901323705836  0.0000
  O      O         0.198203692338344    0.797726147624055    0.079295823327572  0.0000
  O      O         0.095412355769825    0.777158546304423    0.099845709643007  0.0000
  Si     Si        0.359440102179311    0.849511803617417    0.938402458400116  0.0000
  Si     Si        0.234758051091423    0.849235723283728    0.938569289547578  0.0000
  Si     Si        0.433446956064877    0.749642113859498    0.937880338209542  0.0000
  O      O         0.297082468436091    0.831481340521333    0.929685537708598  0.0000
  O      O         0.397518790213320    0.800470023402167    0.918998744347858  0.0000
  O      O         0.371249438301310    0.864978675931404    0.000721030180377  0.0000
  O      O         0.496287683241256    0.764233823978854    0.927206665234662  0.0000
  O      O         0.224456509468230    0.867044259075592    0.000721084358142  0.0000
  O      O         0.373981085598307    0.902461776001300    0.903540698337618  0.0000
  O      O         0.198203616129069    0.797726226002414    0.922146300697187  0.0000
  O      O         0.218771284992420    0.900517564502506    0.901596486115241  0.0000
  Si     Si        0.146417993221216    0.362794565735959    0.938402497466045  0.0000
  Si     Si        0.146694156052375    0.238112517873518    0.938569253273489  0.0000
  Si     Si        0.246287681279761    0.436801418198599    0.937880307391943  0.0000
  O      O         0.164448507905531    0.300436950265650    0.929685539162525  0.0000
  O      O         0.195459715520923    0.400873311968953    0.918998751468244  0.0000
  O      O         0.130951164265187    0.374603865036954    0.000721086461372  0.0000
  O      O         0.231696020208778    0.499642162263945    0.927206670184905  0.0000
  O      O         0.128885580595086    0.227810942073185    0.000721031075691  0.0000
  O      O         0.093467972489552    0.377335503560071    0.903540790744330  0.0000
  O      O         0.198203689838839    0.201558121059891    0.922146290937136  0.0000
  O      O         0.095412354954784    0.222125729659663    0.901596406738547  0.0000
  Si     Si        0.633135307795869    0.149772471326339    0.938402457040615  0.0000
  Si     Si        0.757817356969555    0.150048553675352    0.938569289160018  0.0000
  Si     Si        0.559128447425823    0.249642160707205    0.937880348800201  0.0000
  O      O         0.695492940341503    0.167802937270046    0.929685530357411  0.0000
  O      O         0.595056613868762    0.198814252289715    0.918998754990181  0.0000
  O      O         0.621325981370348    0.134305589699738    0.000721028128847  0.0000
  O      O         0.496287720196308    0.235050449988540    0.927206678935132  0.0000
  O      O         0.768118893526547    0.132240019557645    0.000721084955629  0.0000
  O      O         0.618594322136185    0.096822502593417    0.903540692509001  0.0000
  O      O         0.794371794163199    0.201558049497904    0.922146300645118  0.0000
  O      O         0.773804125608575    0.098766710721404    0.901596489476002  0.0000
  Si     Si        0.846157417637024    0.636489705007326    0.938402499659616  0.0000
  Si     Si        0.845881254673712    0.761171754726200    0.938569255683903  0.0000
  Si     Si        0.746287729360477    0.562482854010111    0.937880307146477  0.0000
  O      O         0.828126905164717    0.698847321393649    0.929685544949741  0.0000
  O      O         0.797115694898158    0.598410961098618    0.918998751327819  0.0000
  O      O         0.861624243538508    0.624680401465819    0.000721088464004  0.0000
  O      O         0.760879391128459    0.499642109936277    0.927206669886206  0.0000
  O      O         0.863689828605445    0.771473334769148    0.000721033214395  0.0000
  O      O         0.899107438377241    0.621948767764863    0.903540792539227  0.0000
  O      O         0.794371719902351    0.797726149484476    0.922146291811731  0.0000
  O      O         0.897163055545651    0.777158542835074    0.901596408805629  0.0000
  Si     Si        0.058606306012270    0.362794531685052    0.150851392428200  0.0000
  Si     Si        0.058439473549778    0.238112480255734    0.151127472117674  0.0000
  Si     Si        0.059128426666416    0.436801384681608    0.250721082269389  0.0000
  O      O         0.067323225531626    0.300436897584889    0.168881856809354  0.0000
  O      O         0.078010021179067    0.400873220558164    0.199893171629817  0.0000
  O      O         0.996287734676861    0.374603868786642    0.135384521721408  0.0000
  O      O         0.069802096462158    0.499642112977815    0.236129373522511  0.0000
  O      O         0.996287679139615    0.227810937722152    0.133318937839232  0.0000
  O      O         0.093468064151966    0.377335512794113    0.097901418571868  0.0000
  O      O         0.074862465481625    0.201558044118467    0.202636967668727  0.0000
  O      O         0.095412273123510    0.222125716191837    0.099845627853093  0.0000
  Si     Si        0.633135277201904    0.061960692138743    0.150851346554886  0.0000
  Si     Si        0.757817324079491    0.061793939764322    0.151127510177038  0.0000
  Si     Si        0.559128422761897    0.062482890394951    0.250721031726232  0.0000
  O      O         0.695492891876522    0.070677646432897    0.168881864707298  0.0000
  O      O         0.595056530440271    0.081364444490088    0.199893065531306  0.0000
  O      O         0.621325972702641    0.999642103393977    0.135384521520014  0.0000
  O      O         0.496287679436323    0.073156529518773    0.236129368343033  0.0000
  O      O         0.768118904969555    0.999642162345280    0.133318935404802  0.0000
  O      O         0.618594345639188    0.096822393858009    0.097901321067113  0.0000
  O      O         0.794371721692007    0.078216904024132    0.202637042942683  0.0000
  O      O         0.773804105817604    0.098766788988450    0.099845708300210  0.0000
  Si     Si        0.933969104419458    0.636489738509045    0.150851391227676  0.0000
  Si     Si        0.934135937173885    0.761171791853251    0.151127471276430  0.0000
  Si     Si        0.933446987605347    0.562482888502346    0.250721083702296  0.0000
  O      O         0.925252185900592    0.698847373491807    0.168881851576109  0.0000
  O      O         0.914565391565228    0.598411052831794    0.199893174122280  0.0000
  O      O         0.996287675563925    0.624680400928962    0.135384518292388  0.0000
  O      O         0.922773317619968    0.499642160287767    0.236129374663508  0.0000
  O      O         0.996287731024518    0.771473336139265    0.133318935852028  0.0000
  O      O         0.899107341550089    0.621948752206298    0.097901421431577  0.0000
  O      O         0.917712947456400    0.797726224533234    0.202636969988817  0.0000
  O      O         0.897163134842052    0.777158559465667    0.099845630229150  0.0000
  Si     Si        0.359440134217635    0.937323574819368    0.150851347977939  0.0000
  Si     Si        0.234758086808071    0.937490328303204    0.151127513295114  0.0000
  Si     Si        0.433446988192391    0.936801383892868    0.250721034797346  0.0000
  O      O         0.297082519563385    0.928606617382005    0.168881863975320  0.0000
  O      O         0.397518881168909    0.917919828136350    0.199893069193589  0.0000
  O      O         0.371249433575416    0.999642164308389    0.135384520471431  0.0000
  O      O         0.496287731333776    0.926127743695021    0.236129372490769  0.0000
  O      O         0.224456506724241    0.999642105593777    0.133318940061372  0.0000
  O      O         0.373981070865760    0.902461868897325    0.097901326176674  0.0000
  O      O         0.198203691280000    0.921067364435158    0.202637047647148  0.0000
  O      O         0.218771300539998    0.900517482186558    0.099845710958927  0.0000
  Si     Si        0.058606305220645    0.636489739096859    0.850590726173583  0.0000
  Si     Si        0.058439473933947    0.761171792043505    0.850314645607339  0.0000
  Si     Si        0.059128424349182    0.562482888942137    0.750721033790090  0.0000
  O      O         0.067323225075512    0.698847373770479    0.832560265207737  0.0000
  O      O         0.078010018775417    0.598411052929706    0.801548944220674  0.0000
  O      O         0.996287734125081    0.624680401826944    0.866057599415240  0.0000
  O      O         0.069802094103036    0.499642160731686    0.765312742882646  0.0000
  O      O         0.996287680143502    0.771473335354468    0.868123182205256  0.0000
  O      O         0.093468067088109    0.621948753841594    0.903540696658417  0.0000
  O      O         0.074862462134184    0.797726224483559    0.798805146357284  0.0000
  O      O         0.095412277900655    0.777158560798439    0.901596485073653  0.0000
  Si     Si        0.359440135166007    0.061960696376497    0.850590769584754  0.0000
  Si     Si        0.234758087338965    0.061793938671028    0.850314602017646  0.0000
  Si     Si        0.433446988772077    0.062482887647470    0.750721082664982  0.0000
  O      O         0.297082520245153    0.070677653451905    0.832560254277158  0.0000
  O      O         0.397518881922335    0.081364443214612    0.801549048482526  0.0000
  O      O         0.371249435585587    0.999642107664515    0.866057598006222  0.0000
  O      O         0.496287732121164    0.073156527177322    0.765312744032095  0.0000
  O      O         0.224456510239376    0.999642160750722    0.868123176558429  0.0000
  O      O         0.373981071134818    0.096822403960363    0.903540790741129  0.0000
  O      O         0.198203693862528    0.078216900949190    0.798805065905946  0.0000
  O      O         0.218771294842102    0.098766784984802    0.901596401519438  0.0000
  Si     Si        0.933969105124158    0.362794533665087    0.850590726537835  0.0000
  Si     Si        0.934135936461769    0.238112480303547    0.850314646134451  0.0000
  Si     Si        0.933446986694024    0.436801383870387    0.750721034165557  0.0000
  O      O         0.925252184313330    0.300436898784925    0.832560266809225  0.0000
  O      O         0.914565391686708    0.400873219550176    0.801548944150324  0.0000
  O      O         0.996287676629570    0.374603870436475    0.866057598363018  0.0000
  O      O         0.922773317180780    0.499642112098709    0.765312743655818  0.0000
  O      O         0.996287730715910    0.227810937067562    0.868123180949485  0.0000
  O      O         0.899107343985346    0.377335520743247    0.903540697023333  0.0000
  O      O         0.917712948082858    0.201558047701597    0.798805146924909  0.0000
  O      O         0.897163133471512    0.222125711354924    0.901596486424188  0.0000
  Si     Si        0.633135276820775    0.937323578340121    0.850590773127160  0.0000
  Si     Si        0.757817325905311    0.937490334909326    0.850314609213803  0.0000
  Si     Si        0.559128427030028    0.936801382828141    0.750721083635317  0.0000
  O      O         0.695492892835214    0.928606625002956    0.832560260590264  0.0000
  O      O         0.595056534696619    0.917919828514409    0.801549049529881  0.0000
  O      O         0.621325971602052    0.999642166933818    0.866057599167297  0.0000
  O      O         0.496287683877419    0.926127743788601    0.765312746602375  0.0000
  O      O         0.768118906858995    0.999642112442785    0.868123183695859  0.0000
  O      O         0.618594339835162    0.902461871032687    0.903540794354695  0.0000
  O      O         0.794371719349784    0.921067371248272    0.798805073430795  0.0000
  O      O         0.773804114202862    0.900517486547592    0.901596409270649  0.0000
  Si     Si        0.146418038240739    0.061960735534722    0.363873457166865  0.0000
  Si     Si        0.146694117517315    0.061793902696718    0.239191404528379  0.0000
  Si     Si        0.246287729659102    0.062482854416084    0.437880306942578  0.0000
  O      O         0.164448498776253    0.070677654308069    0.301515822346444  0.0000
  O      O         0.195459820077319    0.081364450238705    0.401952142742412  0.0000
  O      O         0.130951166989679    0.999642163849535    0.375682795169392  0.0000
  O      O         0.231696021417719    0.073156525363743    0.500721034948386  0.0000
  O      O         0.128885583177225    0.999642108052073    0.228889860417483  0.0000
  O      O         0.093468067357334    0.096822496855318    0.378414441646314  0.0000
  O      O         0.198203615415483    0.078216892133484    0.202636971227054  0.0000
  O      O         0.095412276665643    0.098766705240333    0.223204637063937  0.0000
  Si     Si        0.146418038080016    0.937323534668234    0.637568660409914  0.0000
  Si     Si        0.146694118250791    0.937490366111822    0.762250713654530  0.0000
  Si     Si        0.246287729919092    0.936801414792393    0.563561811539151  0.0000
  O      O         0.164448498438877    0.928606615724861    0.699926295281659  0.0000
  O      O         0.195459820147079    0.917919819211694    0.599489975550934  0.0000
  O      O         0.130951166771252    0.999642106052956    0.625759321009245  0.0000
  O      O         0.231696021603953    0.926127743982032    0.500721083486605  0.0000
  O      O         0.128885582748094    0.999642160458538    0.772552257621745  0.0000
  O      O         0.093468066660735    0.902461774583704    0.623027675387188  0.0000
  O      O         0.198203616384999    0.921067375640933    0.798805146410634  0.0000
  O      O         0.095412277834386    0.900517563391269    0.778237481698517  0.0000
  Si     Si        0.058606264441024    0.149772422108948    0.637568626962271  0.0000
  Si     Si        0.058439508383107    0.150048585926187    0.762250677339623  0.0000
  Si     Si        0.059128456505226    0.249642112922865    0.563561778863313  0.0000
  O      O         0.067323219213901    0.167802932842834    0.699926243594153  0.0000
  O      O         0.078010012698574    0.198814147083444    0.599489885490785  0.0000
  O      O         0.996287676248182    0.134305595336219    0.625759322906413  0.0000
  O      O         0.069802094420307    0.235050450849715    0.500721035063806  0.0000
  O      O         0.996287731098985    0.132240012331201    0.772552258038837  0.0000
  O      O         0.093467971719493    0.096822401997625    0.623027686484879  0.0000
  O      O         0.074862471031140    0.201558122540274    0.798805070523210  0.0000
  O      O         0.095412356312793    0.098766785752060    0.778237466618166  0.0000
  Si     Si        0.846157371728358    0.061960737461809    0.637568662938133  0.0000
  Si     Si        0.845881292594807    0.061793906437084    0.762250715135078  0.0000
  Si     Si        0.746287682054664    0.062482855811803    0.563561810006512  0.0000
  O      O         0.828126910056039    0.070677658431695    0.699926297355633  0.0000
  O      O         0.797115590689592    0.081364451307733    0.599489975757538  0.0000
  O      O         0.861624243622876    0.999642165605112    0.625759326557987  0.0000
  O      O         0.760879392036335    0.073156527423203    0.500721082246271  0.0000
  O      O         0.863689827961079    0.999642111758602    0.772552257147384  0.0000
  O      O         0.899107343340621    0.096822497172719    0.623027677805641  0.0000
  O      O         0.794371796534353    0.078216896685524    0.798805150720220  0.0000
  O      O         0.897163134068854    0.098766708707107    0.778237481149152  0.0000
  Si     Si        0.933969145807581    0.849511849549883    0.637568628879608  0.0000
  Si     Si        0.934135902705674    0.849235686076093    0.762250678621048  0.0000
  Si     Si        0.933446952796651    0.749642159405382    0.563561779749833  0.0000
  O      O         0.925252192444500    0.831481337002178    0.699926245317609  0.0000
  O      O         0.914565397135838    0.800470125588112    0.599489886285701  0.0000
  O      O         0.996287733603681    0.864978676870318    0.625759323627067  0.0000
  O      O         0.922773315834923    0.764233821592229    0.500721035784153  0.0000
  O      O         0.996287679953605    0.867044260516558    0.772552258637041  0.0000
  O      O         0.899107438496549    0.902461870380243    0.623027691444078  0.0000
  O      O         0.917712939793719    0.797726150200156    0.798805072748606  0.0000
  O      O         0.897163055130479    0.900517486707081    0.778237466869111  0.0000
  Si     Si        0.846157372921174    0.937323535884908    0.363873455065168  0.0000
  Si     Si        0.845881293693329    0.937490366941756    0.239191402684484  0.0000
  Si     Si        0.746287682412367    0.936801416617947    0.437880306624947  0.0000
  O      O         0.828126911873956    0.928606615490155    0.301515820524380  0.0000
  O      O         0.797115591626936    0.917919821651726    0.401952141514934  0.0000
  O      O         0.861624244387207    0.999642107690248    0.375682791885229  0.0000
  O      O         0.760879392044529    0.926127744936658    0.500721034453699  0.0000
  O      O         0.863689828830468    0.999642161479319    0.228889859462746  0.0000
  O      O         0.899107344332947    0.902461775855805    0.378414440234691  0.0000
  O      O         0.794371796485898    0.921067377675754    0.202636968448684  0.0000
  O      O         0.897163134463736    0.900517563867282    0.223204636096770  0.0000
  Si     Si        0.058606264258337    0.849511848584073    0.363873490264339  0.0000
  Si     Si        0.058439507894097    0.849235683400694    0.239191441006062  0.0000
  Si     Si        0.059128455259887    0.749642159230571    0.437880339942405  0.0000
  O      O         0.067323218727161    0.831481334622536    0.301515874378005  0.0000
  O      O         0.078010012006616    0.800470125447725    0.401952234298830  0.0000
  O      O         0.996287676170921    0.864978676503109    0.375682793415610  0.0000
  O      O         0.069802092600697    0.764233820373204    0.500721083877309  0.0000
  O      O         0.996287730918158    0.867044257864545    0.228889860654917  0.0000
  O      O         0.093467972022735    0.902461868987023    0.378414428193803  0.0000
  O      O         0.074862471110487    0.797726147750192    0.202637046727065  0.0000
  O      O         0.095412355293550    0.900517484122355    0.223204653084309  0.0000
  Si     Si        0.933969146881142    0.149772422961638    0.363873489288081  0.0000
  Si     Si        0.934135903516180    0.150048586762404    0.239191439891856  0.0000
  Si     Si        0.933446954287916    0.249642113017347    0.437880338677079  0.0000
  O      O         0.925252192904742    0.167802935716886    0.301515873113169  0.0000
  O      O         0.914565398768055    0.198814146725807    0.401952232326032  0.0000
  O      O         0.996287734950434    0.134305595260272    0.375682793098912  0.0000
  O      O         0.922773316346815    0.235050451296445    0.500721082477379  0.0000
  O      O         0.996287680692612    0.132240013315045    0.228889859265826  0.0000
  O      O         0.899107438737574    0.096822402632434    0.378414426783450  0.0000
  O      O         0.917712938909812    0.201558122350898    0.202637046541629  0.0000
  O      O         0.897163057157735    0.098766785472362    0.223204651312014  0.0000
  Si     Si        0.633135277266467    0.849511849035921    0.938402500042274  0.0000
  Si     Si        0.757817325972971    0.849235685004078    0.938569255713038  0.0000
  Si     Si        0.559128426258873    0.749642160343699    0.937880305021667  0.0000
  O      O         0.695492892982137    0.831481336286862    0.929685544805637  0.0000
  O      O         0.595056534348661    0.800470125993031    0.918998750551970  0.0000
  Si     Si        0.146418037614960    0.636489739801634    0.938402457594585  0.0000
  Si     Si        0.146694117396754    0.761171793381356    0.938569289435195  0.0000
  Si     Si        0.246287729623860    0.562482890615377    0.937880339310756  0.0000
  O      O         0.164448497711729    0.698847374939347    0.929685539378452  0.0000
  O      O         0.195459820221346    0.598411054911059    0.918998743400211  0.0000
  Si     Si        0.359440131337983    0.149772422170500    0.938402500538913  0.0000
  Si     Si        0.234758079523218    0.150048582602992    0.938569254685540  0.0000
  Si     Si        0.433446975766322    0.249642114821514    0.937880310285243  0.0000
  O      O         0.297082513738345    0.167802930741527    0.929685553599283  0.0000
  O      O         0.397518869420295    0.198814149691061    0.918998752533296  0.0000
  Si     Si        0.846157374502861    0.362794533879811    0.938402459522074  0.0000
  Si     Si        0.845881294038402    0.238112479718509    0.938569290670040  0.0000
  Si     Si        0.746287681157761    0.436801382225850    0.937880342077495  0.0000
  O      O         0.828126915801403    0.300436898619736    0.929685541379786  0.0000
  O      O         0.797115590188777    0.400873217342798    0.918998746461562  0.0000
  Si     Si        0.633135274212978    0.149772419437678    0.063039617701713  0.0000
  Si     Si        0.757817318775164    0.150048592370285    0.062872863698467  0.0000
  Si     Si        0.559128405637686    0.249642099550193    0.063561817809421  0.0000
  O      O         0.695492886597828    0.167802945214054    0.071756578953796  0.0000
  O      O         0.595056514846527    0.198814130008372    0.082443362732009  0.0000
  Si     Si        0.846157371316776    0.636489738949824    0.063039660032683  0.0000
  Si     Si        0.845881293872181    0.761171791936900    0.062872827881044  0.0000
  Si     Si        0.746287680444538    0.562482887043853    0.063561778506355  0.0000
  O      O         0.828126912427150    0.698847374100010    0.071756579933978  0.0000
  O      O         0.797115587663367    0.598411055098691    0.082443373886959  0.0000
  Si     Si        0.359440135891129    0.849511847467288    0.063039618563380  0.0000
  Si     Si        0.234758088106516    0.849235682622480    0.062872861700040  0.0000
  Si     Si        0.433446989064824    0.749642160151064    0.063561810461053  0.0000
  O      O         0.297082520644364    0.831481331603535    0.071756572937397  0.0000
  O      O         0.397518882022653    0.800470125886584    0.082443366141713  0.0000
  Si     Si        0.146418036666486    0.362794531051151    0.063039658582515  0.0000
  Si     Si        0.146694115700999    0.238112480497801    0.062872826308167  0.0000
  Si     Si        0.246287725278738    0.436801386221785    0.063561778388736  0.0000
  O      O         0.164448502598093    0.300436897276502    0.071756580634850  0.0000
  O      O         0.195459813662348    0.400873223287832    0.082443371776289  0.0000
  Si     Si        0.933969146004291    0.636489705608995    0.850590772008053  0.0000
  Si     Si        0.934135902929809    0.761171755299582    0.850314607968199  0.0000
  Si     Si        0.933446954088318    0.562482856183932    0.750721081870612  0.0000
  O      O         0.925252192133927    0.698847321929483    0.832560258804367  0.0000
  O      O         0.914565398380909    0.598410962244637    0.801549048252526  0.0000
  Si     Si        0.359440102000187    0.937323535270382    0.850590725628924  0.0000
  Si     Si        0.234758051444451    0.937490365486000    0.850314643266857  0.0000
  Si     Si        0.433446956601835    0.936801415703489    0.750721036501805  0.0000
  O      O         0.297082468882375    0.928606612400758    0.832560261257006  0.0000
  O      O         0.397518791520531    0.917919821894313    0.801548946355588  0.0000
  Si     Si        0.058606264562413    0.362794566475164    0.850590770308637  0.0000
  Si     Si        0.058439507656707    0.238112517136884    0.850314605869639  0.0000
  Si     Si        0.059128456927297    0.436801416678529    0.750721081224717  0.0000
  O      O         0.067323217986942    0.300436950410593    0.832560256088441  0.0000
  O      O         0.078010012946291    0.400873310469003    0.801549047446079  0.0000
  Si     Si        0.633135309919347    0.061960738218807    0.850590724579920  0.0000
  Si     Si        0.757817362042437    0.061793906683644    0.850314647930541  0.0000
  Si     Si        0.559128459238382    0.062482854761926    0.750721033040489  0.0000
  O      O         0.695492944681311    0.070677655819211    0.832560264750925  0.0000
  O      O         0.595056625778606    0.081364450854619    0.801548940708078  0.0000
  Si     Si        0.933969146358641    0.362794566136846    0.150851347691832  0.0000
  Si     Si        0.934135901665509    0.238112516834903    0.151127510998107  0.0000
  Si     Si        0.933446955886767    0.436801416415193    0.250721036486006  0.0000
  O      O         0.925252189652249    0.300436949992807    0.168881859929010  0.0000
  O      O         0.914565398719894    0.400873309741086    0.199893071298074  0.0000
  Si     Si        0.633135310789485    0.937323532136773    0.150851393483597  0.0000
  Si     Si        0.757817362813997    0.937490367449707    0.151127470750221  0.0000
  Si     Si        0.559128458244573    0.936801417587356    0.250721083491199  0.0000
  O      O         0.695492945717971    0.928606613316687    0.168881852367221  0.0000
  O      O         0.595056626008331    0.917919819632770    0.199893177146044  0.0000
  Si     Si        0.058606263735495    0.636489705314889    0.150851344782581  0.0000
  Si     Si        0.058439508276363    0.761171755652567    0.151127509503554  0.0000
  Si     Si        0.059128458190411    0.562482856837739    0.250721035365375  0.0000
  O      O         0.067323218914325    0.698847321763996    0.168881856149208  0.0000
  O      O         0.078010013102117    0.598410963316397    0.199893068821825  0.0000
  Si     Si        0.359440098338712    0.061960736276886    0.150851391611416  0.0000
  Si     Si        0.234758045650695    0.061793901725180    0.151127471449388  0.0000
  Si     Si        0.433446952785932    0.062482856235379    0.250721081713448  0.0000
  O      O         0.297082463461887    0.070677660245898    0.168881848027041  0.0000
  O      O         0.397518783016426    0.081364449646180    0.199893174659239  0.0000
  Si     Si        0.846157417612504    0.937323576769244    0.637568629426224  0.0000
  Si     Si        0.845881254304846    0.937490333793512    0.762250678505510  0.0000
  Si     Si        0.746287729954532    0.936801383828516    0.563561778147596  0.0000
  O      O         0.828126904906853    0.928606621334951    0.699926245567527  0.0000
  O      O         0.797115695152507    0.917919828038474    0.599489885513877  0.0000
  Si     Si        0.846157418022830    0.061960696274094    0.363873488023111  0.0000
  Si     Si        0.845881255446485    0.061793939358915    0.239191438609923  0.0000
  Si     Si        0.746287729732093    0.062482888644475    0.437880338535434  0.0000
  O      O         0.828126905760927    0.070677651100074    0.301515871656922  0.0000
  O      O         0.797115694667375    0.081364444731517    0.401952231024204  0.0000
  Si     Si        0.933969104923821    0.849511804091251    0.363873456216352  0.0000
  Si     Si        0.934135936732774    0.849235722682999    0.239191403695019  0.0000
  Si     Si        0.933446985040022    0.749642112617453    0.437880307503096  0.0000
  O      O         0.925252185220227    0.831481341742850    0.301515821862878  0.0000
  O      O         0.914565390508487    0.800470023267437    0.401952143621944  0.0000
  Si     Si        0.146417993163916    0.937323575221570    0.363873490773690  0.0000
  Si     Si        0.146694156505372    0.937490330412684    0.239191441253857  0.0000
  Si     Si        0.246287682273010    0.936801382605173    0.437880339636693  0.0000
  O      O         0.164448505568800    0.928606620497510    0.301515874620109  0.0000
  O      O         0.195459716448158    0.917919826004325    0.401952233606190  0.0000
  Si     Si        0.058606306211854    0.149772467854030    0.363873455884387  0.0000
  Si     Si        0.058439474937864    0.150048547392493    0.239191402986342  0.0000
  Si     Si        0.059128424762710    0.249642159947000    0.437880306841347  0.0000
  O      O         0.067323226013137    0.167802928965206    0.301515821119019  0.0000
  O      O         0.078010019590841    0.198814249897360    0.401952142318379  0.0000
  Si     Si        0.146417991928382    0.061960694811584    0.637568625502102  0.0000
  Si     Si        0.146694155853208    0.061793938063917    0.762250675696346  0.0000
  Si     Si        0.246287682330236    0.062482886688387    0.563561778791210  0.0000
  O      O         0.164448502078890    0.070677648973112    0.699926242084304  0.0000
  O      O         0.195459716489561    0.081364443853559    0.599489884350351  0.0000
  Si     Si        0.933969105308722    0.149772468244664    0.637568661305607  0.0000
  Si     Si        0.934135937454548    0.150048549101382    0.762250714002531  0.0000
  Si     Si        0.933446986060565    0.249642160029936    0.563561810667937  0.0000
  O      O         0.925252187320097    0.167802930477978    0.699926295814000  0.0000
  O      O         0.914565391029425    0.198814249612527    0.599489974535070  0.0000
  Si     Si        0.058606304773880    0.849511804128646    0.637568661191461  0.0000
  Si     Si        0.058439473481977    0.849235723757589    0.762250714104118  0.0000
  Si     Si        0.059128423097208    0.749642111343838    0.563561812003783  0.0000
  O      O         0.067323223937173    0.831481343352898    0.699926295861344  0.0000
  O      O         0.078010018379230    0.800470021758623    0.599489975546921  0.0000
  Si     Si        0.859440101119295    0.649772468439886    0.563039659592870  0.0000
  Si     Si        0.734758049196903    0.650048547153128    0.562872827471833  0.0000
  O      O         0.797082466671385    0.667802928987145    0.571756578696593  0.0000
  O      O         0.897518786543491    0.698814250432393    0.582443374357387  0.0000
  O      O         0.871249439337065    0.634305596967491    0.500721088087974  0.0000
  O      O         0.996287680013273    0.735050448603205    0.574235452218802  0.0000
  O      O         0.724456505983880    0.632240011065623    0.500721033111751  0.0000
  O      O         0.873981085905424    0.596822496881969    0.597901420271224  0.0000
  O      O         0.698203615843801    0.701558045455936    0.579295816207409  0.0000
  O      O         0.718771282097221    0.598766706577759    0.599845631163240  0.0000
  Si     Si        0.346157420055837    0.862794567071217    0.563039619136116  0.0000
  Si     Si        0.345881256813227    0.738112516612920    0.562872861887188  0.0000
  O      O         0.328126908967900    0.800436950237333    0.571756572071024  0.0000
  O      O         0.297115695528740    0.900873308403560    0.582443368152383  0.0000
  O      O         0.361624246283251    0.874603872875539    0.500721030881986  0.0000
  O      O         0.260879390718431    0.999642158688102    0.574235450593840  0.0000
  O      O         0.363689830024602    0.727810935303995    0.500721084294324  0.0000
  O      O         0.399107440239110    0.877335505488269    0.597901326643249  0.0000
  O      O         0.294371721219034    0.701558123508192    0.579295826676239  0.0000
  O      O         0.397163057505811    0.722125727879322    0.599845708737707  0.0000
  Si     Si        0.133135309199236    0.349511803089223    0.563039660234706  0.0000
  Si     Si        0.257817360370265    0.349235721453426    0.562872830362172  0.0000
  O      O         0.195492942686176    0.331481339695709    0.571756581490123  0.0000
  O      O         0.095056621104661    0.300470022677818    0.582443373999814  0.0000
  O      O         0.121325972920296    0.364978675157516    0.500721088504388  0.0000
  O      O         0.996287729094983    0.264233822416677    0.574235450632089  0.0000
  O      O         0.268118903503059    0.367044255552161    0.500721035804050  0.0000
  O      O         0.118594326079687    0.402461775644821    0.597901419916769  0.0000
  O      O         0.294371794288797    0.297726224221884    0.579295821722113  0.0000
  O      O         0.273804127216066    0.400517563806972    0.599845631394682  0.0000
  Si     Si        0.646417992838685    0.136489705387780    0.563039616779786  0.0000
  Si     Si        0.646694157412480    0.261171754893619    0.562872863338812  0.0000
  O      O         0.664448505723665    0.198847321297527    0.571756573491153  0.0000
  O      O         0.695459715689785    0.098410961682853    0.582443365288171  0.0000
  O      O         0.630951166136964    0.124680402815935    0.500721027980688  0.0000
  O      O         0.731696020562040    0.999642111923245    0.574235448418410  0.0000
  O      O         0.628885583550944    0.271473335059350    0.500721085881416  0.0000
  O      O         0.593467971541966    0.121948767345591    0.597901322488001  0.0000
  O      O         0.698203693253419    0.297726148601230    0.579295825999456  0.0000
  O      O         0.595412357831774    0.277158544018631    0.599845711650949  0.0000
  Si     Si        0.859440100968321    0.349511802640998    0.438402458263501  0.0000
  Si     Si        0.734758049835311    0.349235723270363    0.438569289981501  0.0000
  O      O         0.797082467019457    0.331481339286548    0.429685539331576  0.0000
  O      O         0.897518788580777    0.300470022217198    0.418998743689124  0.0000
  O      O         0.871249438546689    0.364978674950094    0.500721029691123  0.0000
  O      O         0.996287681725291    0.264233823015262    0.427206667000444  0.0000
  O      O         0.724456506711520    0.367044258479808    0.500721084555065  0.0000
  O      O         0.873981083658226    0.402461774886801    0.403540697917149  0.0000
  O      O         0.698203613769899    0.297726227139967    0.422146299712464  0.0000
  O      O         0.718771285750881    0.400517565410698    0.401596487256653  0.0000
  Si     Si        0.646417994193182    0.862794566056161    0.438402499743948  0.0000
  Si     Si        0.646694157277502    0.738112516676682    0.438569254925138  0.0000
  O      O         0.664448507238128    0.800436949891774    0.429685544709550  0.0000
  O      O         0.695459716858996    0.900873309730321    0.418998750660446  0.0000
  O      O         0.630951167742537    0.874603869857802    0.500721088271920  0.0000
  O      O         0.731696020363134    0.999642160507718    0.427206668282118  0.0000
  O      O         0.628885582511647    0.727810936915074    0.500721032408843  0.0000
  O      O         0.593467972777229    0.877335503493304    0.403540794097851  0.0000
  O      O         0.698203692043861    0.701558121545097    0.422146292348062  0.0000
  O      O         0.595412357381344    0.722125729328534    0.401596406243988  0.0000
  Si     Si        0.133135309547183    0.649772470487512    0.438402458696540  0.0000
  Si     Si        0.257817360297278    0.650048552865885    0.438569290398622  0.0000
  O      O         0.195492942855464    0.667802934702621    0.429685537216378  0.0000
  O      O         0.095056620462448    0.698814249924796    0.418998744879483  0.0000
  O      O         0.121325975137617    0.634305598117020    0.500721030793694  0.0000
  O      O         0.996287727994668    0.735050449718299    0.427206667188353  0.0000
  O      O         0.268118902259089    0.632240017229975    0.500721084790993  0.0000
  O      O         0.118594325413527    0.596822498447165    0.403540698598732  0.0000
  O      O         0.294371795193236    0.701558049870749    0.422146300642825  0.0000
  O      O         0.273804126989456    0.598766711217796    0.401596488542108  0.0000
  Si     Si        0.346157417534372    0.136489705180155    0.438402499833967  0.0000
  Si     Si        0.345881251622139    0.261171754318235    0.438569257740373  0.0000
  O      O         0.328126902696037    0.198847321015245    0.429685545655800  0.0000
  O      O         0.297115695542502    0.098410960711260    0.418998750817981  0.0000
  O      O         0.361624244581669    0.124680402143989    0.500721088465128  0.0000
  O      O         0.260879390512225    0.999642110605210    0.427206667850295  0.0000
  O      O         0.363689824037625    0.271473334292374    0.500721035482275  0.0000
  O      O         0.399107438673053    0.121948768399347    0.403540793049262  0.0000
  O      O         0.294371717629838    0.297726149575720    0.422146292380817  0.0000
  O      O         0.397163053847004    0.277158541964678    0.401596412839961  0.0000
  Si     Si        0.558606307568031    0.862794531664747    0.650851392031338  0.0000
  Si     Si        0.558439475728091    0.738112478810009    0.651127471174577  0.0000
  O      O         0.567323227032029    0.800436896819824    0.668881852813593  0.0000
  O      O         0.578010021692025    0.900873216927814    0.699893174589473  0.0000
  O      O         0.496287736417191    0.874603869697087    0.635384519672626  0.0000
  O      O         0.569802096741730    0.999642110614257    0.736129372177065  0.0000
  O      O         0.496287681616397    0.727810935875608    0.633318935834266  0.0000
  O      O         0.593468068625869    0.877335517196588    0.597901421042847  0.0000
  O      O         0.574862465469058    0.701558044374970    0.702636968703280  0.0000
  O      O         0.595412277857469    0.722125712053802    0.599845629766083  0.0000
  Si     Si        0.133135277187939    0.561960696337644    0.650851346832417  0.0000
  Si     Si        0.257817325228952    0.561793939767374    0.651127510034637  0.0000
  O      O         0.195492892787781    0.570677650642352    0.668881861043477  0.0000
  O      O         0.095056532840569    0.581364445018762    0.699893069221706  0.0000
  O      O         0.121325973489248    0.499642107911013    0.635384519551122  0.0000
  O      O         0.996287681225881    0.573156528749899    0.736129370887813  0.0000
  O      O         0.268118904622099    0.499642161868232    0.633318936137534  0.0000
  O      O         0.118594340991334    0.596822403128068    0.597901325397650  0.0000
  O      O         0.294371720783716    0.578216903586600    0.702637044277461  0.0000
  O      O         0.273804111701376    0.598766786963385    0.599845708407148  0.0000
  Si     Si        0.433969106130058    0.136489738497855    0.650851390959629  0.0000
  Si     Si        0.434135937931612    0.261171791655346    0.651127471327882  0.0000
  O      O         0.425252187763073    0.198847373314741    0.668881852505174  0.0000
  O      O         0.414565392858400    0.098411052298443    0.699893173214620  0.0000
  O      O         0.496287676801124    0.124680400256302    0.635384517296210  0.0000
  O      O         0.422773318818561    0.999642159411041    0.736129373632566  0.0000
  O      O         0.496287731872560    0.271473335649555    0.633318935228087  0.0000
  O      O         0.399107344208714    0.121948753304037    0.597901420493645  0.0000
  O      O         0.417712948774089    0.297726225563387    0.702636969247498  0.0000
  O      O         0.397163133840374    0.277158558091698    0.599845631012091  0.0000
  Si     Si        0.859440134889661    0.437323575954808    0.650851346466556  0.0000
  Si     Si        0.734758086465066    0.437490331500527    0.651127511268338  0.0000
  O      O         0.797082519450539    0.428606620291709    0.668881860143463  0.0000
  O      O         0.897518878947194    0.417919827761708    0.699893069220944  0.0000
  O      O         0.871249437765343    0.499642164723451    0.635384519867488  0.0000
  O      O         0.996287729730178    0.426127744031847    0.736129371168945  0.0000
  O      O         0.724456506931466    0.499642109292292    0.633318937630362  0.0000
  O      O         0.873981072570655    0.402461869582987    0.597901325118603  0.0000
  O      O         0.698203692421704    0.421067367119362    0.702637046526023  0.0000
  O      O         0.718771298436643    0.400517485076808    0.599845709685163  0.0000
  Si     Si        0.558606305125044    0.136489740758084    0.350590724959898  0.0000
  Si     Si        0.558439471129180    0.261171793276954    0.350314650350622  0.0000
  O      O         0.567323223881769    0.198847376332451    0.332560265806995  0.0000
  O      O         0.578010017348919    0.098411056682505    0.301548940675209  0.0000
  O      O         0.496287734281278    0.124680403060485    0.366057598876642  0.0000
  O      O         0.569802093424178    0.999642162621359    0.265312742799159  0.0000
  O      O         0.496287676972317    0.271473334909608    0.368123186004827  0.0000
  O      O         0.593468068408514    0.121948754071178    0.403540694291838  0.0000
  O      O         0.574862458825914    0.297726231054416    0.298805154406149  0.0000
  O      O         0.595412274211403    0.277158559456534    0.401596491298878  0.0000
  Si     Si        0.859440135668194    0.561960696108773    0.350590771426745  0.0000
  Si     Si        0.734758087774316    0.561793939772911    0.350314605680709  0.0000
  O      O         0.797082520516432    0.570677652693343    0.332560256992693  0.0000
  O      O         0.897518880819940    0.581364444152674    0.301549049482780  0.0000
  O      O         0.871249436788406    0.499642107060252    0.366057598563145  0.0000
  O      O         0.996287730796935    0.573156528272712    0.265312745509136  0.0000
  O      O         0.724456509077967    0.499642161604450    0.368123178363320  0.0000
  O      O         0.873981072930287    0.596822402701055    0.403540792791050  0.0000
  O      O         0.698203693726060    0.578216904228748    0.298805070393548  0.0000
  O      O         0.718771298849476    0.598766785429155    0.401596407565747  0.0000
  Si     Si        0.433969106306729    0.862794534211005    0.350590727508572  0.0000
  Si     Si        0.434135938129070    0.738112481127138    0.350314646484008  0.0000
  O      O         0.425252185776337    0.800436899505496    0.332560267112146  0.0000
  O      O         0.414565392954898    0.900873219777749    0.301548944912973  0.0000
  O      O         0.496287677480700    0.874603870900899    0.366057600419743  0.0000
  O      O         0.422773318247567    0.999642111859860    0.265312744443605  0.0000
  O      O         0.496287732354415    0.727810938369666    0.368123182042148  0.0000
  O      O         0.399107345366305    0.877335520873400    0.403540698255470  0.0000
  O      O         0.417712950111941    0.701558048885214    0.298805147062496  0.0000
  O      O         0.397163134614532    0.722125712048394    0.401596486389276  0.0000
  Si     Si        0.133135274009658    0.437323577876012    0.350590773284669  0.0000
  Si     Si        0.257817323338779    0.437490335903048    0.350314613325074  0.0000
  O      O         0.195492890815410    0.428606624877162    0.332560264540930  0.0000
  O      O         0.095056534553722    0.417919828668062    0.301549047346431  0.0000
  O      O         0.121325968714747    0.499642166401558    0.366057598929798  0.0000
  O      O         0.996287683586994    0.426127744934501    0.265312744836715  0.0000
  O      O         0.268118904901442    0.499642113635571    0.368123186337501  0.0000
  O      O         0.118594334718066    0.402461869728667    0.403540793220575  0.0000
  O      O         0.294371715525001    0.421067372644994    0.298805077014673  0.0000
  O      O         0.273804112851922    0.400517488195154    0.401596413590591  0.0000
  Si     Si        0.646418038028441    0.561960734697831    0.863873456324425  0.0000
  Si     Si        0.646694118016514    0.561793902419022    0.739191403626025  0.0000
  O      O         0.664448498590071    0.570677654561606    0.801515821622791  0.0000
  O      O         0.695459820332908    0.581364448699479    0.901952141615756  0.0000
  O      O         0.630951165680686    0.499642163099358    0.875682793821777  0.0000
  O      O         0.731696019487281    0.573156525393194    0.000721034773911  0.0000
  O      O         0.628885583424782    0.499642107457172    0.728889861068059  0.0000
  O      O         0.593468067607392    0.596822496499252    0.878414441783208  0.0000
  O      O         0.698203615677472    0.578216892811678    0.702636970392314  0.0000
  O      O         0.595412277126949    0.598766704668326    0.723204635477932  0.0000
  Si     Si        0.646418036084709    0.437323528550109    0.137568663511532  0.0000
  Si     Si        0.646694114243405    0.437490367123729    0.262250718719356  0.0000
  O      O         0.664448488481208    0.428606609067745    0.199926300221742  0.0000
  O      O         0.695459824070458    0.417919818892309    0.099489982034278  0.0000
  O      O         0.630951162769414    0.499642100668766    0.125759326892384  0.0000
  O      O         0.731696018922086    0.426127744127164    0.000721086033789  0.0000
  O      O         0.628885584180127    0.499642163193346    0.272552260400253  0.0000
  O      O         0.593468071079871    0.402461761779914    0.123027669841593  0.0000
  O      O         0.698203614180684    0.421067376003075    0.298805148669008  0.0000
  O      O         0.595412271292698    0.400517570771184    0.278237493200261  0.0000
  Si     Si        0.558606264264202    0.649772419539433    0.137568627149595  0.0000
  Si     Si        0.558439508935120    0.650048588049600    0.262250676406947  0.0000
  O      O         0.567323218908244    0.667802935738115    0.199926242530486  0.0000
  O      O         0.578010013232572    0.698814140553998    0.099489881120499  0.0000
  O      O         0.496287675736832    0.634305593003910    0.125759324300299  0.0000
  O      O         0.569802095468993    0.735050449219481    0.000721032847145  0.0000
  O      O         0.496287731958005    0.632240012872108    0.272552257198394  0.0000
  O      O         0.593467968948117    0.596822396554112    0.123027692265376  0.0000
  O      O         0.574862470993054    0.701558124703273    0.298805069777107  0.0000
  O      O         0.595412358101285    0.598766788742097    0.278237464903794  0.0000
  Si     Si        0.346157368975366    0.561960740623415    0.137568664004530  0.0000
  Si     Si        0.345881291657708    0.561793908565054    0.262250716593708  0.0000
  O      O         0.328126909922636    0.570677661866123    0.199926298909100  0.0000
  O      O         0.297115588334609    0.581364455440212    0.099489977252120  0.0000
  O      O         0.361624236400685    0.499642167871861    0.125759327421543  0.0000
  O      O         0.260879391743899    0.573156530909531    0.000721082795650  0.0000
  O      O         0.363689825864105    0.499642113704476    0.272552259445300  0.0000
  O      O         0.399107341441058    0.596822498135509    0.123027677406454  0.0000
  O      O         0.294371794353830    0.578216897681120    0.298805150818873  0.0000
  O      O         0.397163133593987    0.598766710248102    0.278237483216562  0.0000
  Si     Si        0.433969137769312    0.349511852185506    0.137568634024187  0.0000
  Si     Si        0.434135897009188    0.349235687463516    0.262250683916716  0.0000
  O      O         0.425252189760698    0.331481336136895    0.199926250604474  0.0000
  O      O         0.414565386099446    0.300470130039805    0.099489888713720  0.0000
  O      O         0.496287726144214    0.364978686351200    0.125759324907310  0.0000
  O      O         0.422773297503661    0.264233829105640    0.000721035787062  0.0000
  O      O         0.496287672352032    0.367044264709300    0.272552269636712  0.0000
  O      O         0.399107430870149    0.402461873827129    0.123027699521866  0.0000
  O      O         0.417712934492485    0.297726151023696    0.298805077471508  0.0000
  O      O         0.397163048714420    0.400517487998940    0.278237468962279  0.0000
  Si     Si        0.346157371887685    0.437323537116273    0.863873455562100  0.0000
  Si     Si        0.345881293617387    0.437490367445173    0.739191403043271  0.0000
  O      O         0.328126911493382    0.428606616211013    0.801515820852772  0.0000
  O      O         0.297115590323956    0.417919823340913    0.901952142074568  0.0000
  O      O         0.361624243604333    0.499642108901589    0.875682792323625  0.0000
  O      O         0.260879390617265    0.426127746042918    0.000721035271380  0.0000
  O      O         0.363689828827713    0.499642161998844    0.728889860040339  0.0000
  O      O         0.399107343145590    0.402461776956403    0.878414440637905  0.0000
  O      O         0.294371795951371    0.421067377854620    0.702636969426461  0.0000
  O      O         0.397163134693805    0.400517564905094    0.723204635535128  0.0000
  Si     Si        0.558606262279105    0.349511847458250    0.863873492363211  0.0000
  Si     Si        0.558439508543584    0.349235681821107    0.739191443380832  0.0000
  O      O         0.567323218434146    0.331481331411841    0.801515876928764  0.0000
  O      O         0.578010004481002    0.300470125175572    0.901952241174305  0.0000
  O      O         0.496287674034869    0.364978678070824    0.875682792270958  0.0000
  O      O         0.569802082316406    0.264233826123570    0.000721093145388  0.0000
  O      O         0.496287732081533    0.367044258269805    0.728889862805683  0.0000
  O      O         0.593467972235576    0.402461867183944    0.878414428182443  0.0000
  O      O         0.574862470447393    0.297726146092874    0.702637048555937  0.0000
  O      O         0.595412357352152    0.400517481520387    0.723204655467318  0.0000
  Si     Si        0.433969147594217    0.649772423724572    0.863873489004034  0.0000
  Si     Si        0.434135904221065    0.650048586693019    0.739191439251791  0.0000
  O      O         0.425252194276769    0.667802935893878    0.801515872513597  0.0000
  O      O         0.414565399684524    0.698814148130334    0.901952231466950  0.0000
  O      O         0.496287735491587    0.634305595852735    0.875682793562438  0.0000
  O      O         0.422773319466955    0.735050451486556    0.000721082229535  0.0000
  O      O         0.496287681022487    0.632240011901714    0.728889858376474  0.0000
  O      O         0.399107438802174    0.596822403897225    0.878414427047211  0.0000
  O      O         0.417712940972508    0.701558122565049    0.702637045370478  0.0000
  O      O         0.397163056484480    0.598766786271968    0.723204650992708  0.0000
  Si     Si        0.133135275060565    0.349511848993287    0.438402499661848  0.0000
  Si     Si        0.257817323878067    0.349235684870723    0.438569257509688  0.0000
  O      O         0.195492890998924    0.331481337434594    0.429685543810091  0.0000
  O      O         0.095056532765711    0.300470125023267    0.418998751223036  0.0000
  Si     Si        0.646418038500696    0.136489739818484    0.438402456405226  0.0000
  Si     Si        0.646694117287746    0.261171792575953    0.438569290978009  0.0000
  O      O         0.664448498950427    0.198847374857847    0.429685537342316  0.0000
  O      O         0.695459820481256    0.098411053653903    0.418998743281211  0.0000
  Si     Si        0.859440134843422    0.649772423616207    0.438402499710889  0.0000
  Si     Si        0.734758086164941    0.650048586037697    0.438569255706430  0.0000
  O      O         0.797082518893305    0.667802935911736    0.429685545573739  0.0000
  O      O         0.897518877045481    0.698814147820531    0.418998751207480  0.0000
  Si     Si        0.346157374919272    0.862794534413395    0.438402459293128  0.0000
  Si     Si        0.345881294924751    0.738112480705482    0.438569290114989  0.0000
  O      O         0.328126915899013    0.800436899326979    0.429685540067354  0.0000
  O      O         0.297115592030602    0.900873218546030    0.418998744371341  0.0000
  Si     Si        0.133135277105897    0.649772425171752    0.563039619471726  0.0000
  Si     Si        0.257817324601788    0.650048589755934    0.562872863055955  0.0000
  O      O         0.195492892233986    0.667802940570553    0.571756575716692  0.0000
  O      O         0.095056531326857    0.698814146508303    0.582443367924580  0.0000
  Si     Si        0.346157372777728    0.136489738173191    0.563039660396139  0.0000
  Si     Si        0.345881291543097    0.261171790689489    0.562872830413071  0.0000
  O      O         0.328126911043627    0.198847372409043    0.571756582080707  0.0000
  O      O         0.297115591960853    0.098411050784374    0.582443374342266  0.0000
  Si     Si        0.859440135185506    0.349511848382783    0.563039618302487  0.0000
  Si     Si        0.734758086749915    0.349235684339597    0.562872862173565  0.0000
  O      O         0.797082519557011    0.331481335270172    0.571756573182847  0.0000
  O      O         0.897518878537064    0.300470125174327    0.582443366834235  0.0000
  Si     Si        0.646418039440188    0.862794532232347    0.563039659837030  0.0000
  Si     Si        0.646694118431483    0.738112479495536    0.562872826894032  0.0000
  O      O         0.664448500205488    0.800436897347159    0.571756579071325  0.0000
  O      O         0.695459820968920    0.900873218631960    0.582443373784763  0.0000
  Si     Si        0.433969145728214    0.136489705998141    0.350590772147148  0.0000
  Si     Si        0.434135900005605    0.261171755215574    0.350314611028908  0.0000
  O      O         0.425252190175173    0.198847322255040    0.332560259519352  0.0000
  O      O         0.414565398314792    0.098410962274123    0.301549048683395  0.0000
  Si     Si        0.859440101506890    0.437323535215143    0.350590725509710  0.0000
  Si     Si        0.734758050853379    0.437490366556722    0.350314644298258  0.0000
  O      O         0.797082468078175    0.428606614323745    0.332560260610552  0.0000
  O      O         0.897518791605408    0.417919821622432    0.301548946649744  0.0000
  Si     Si        0.558606265576974    0.862794567749175    0.350590772893490  0.0000
  Si     Si        0.558439509228421    0.738112518315808    0.350314606397343  0.0000
  O      O         0.567323219874424    0.800436951945593    0.332560257762487  0.0000
  O      O         0.578010013676725    0.900873314043929    0.301549051671998  0.0000
  Si     Si        0.133135308709682    0.561960737613879    0.350590726832931  0.0000
  Si     Si        0.257817360699196    0.561793907301553    0.350314648404748  0.0000
  O      O         0.195492943044483    0.570677655864242    0.332560265536995  0.0000
  O      O         0.095056623548824    0.581364452366674    0.301548944508055  0.0000
  Si     Si        0.433969148124131    0.862794566228366    0.650851346630243  0.0000
  Si     Si        0.434135904498454    0.738112516348885    0.651127509618408  0.0000
  O      O         0.425252193460306    0.800436949712974    0.668881858212701  0.0000
  O      O         0.414565400407433    0.900873308514714    0.699893071072565  0.0000
  Si     Si        0.133135310163868    0.437323536098086    0.650851391731654  0.0000
  Si     Si        0.257817361478666    0.437490367473279    0.651127472236274  0.0000
  O      O         0.195492943994646    0.428606616261173    0.668881854570360  0.0000
  O      O         0.095056622696618    0.417919821754217    0.699893172228232  0.0000
  Si     Si        0.558606264975718    0.136489704401745    0.650851343735383  0.0000
  Si     Si        0.558439508690581    0.261171754421043    0.651127510658990  0.0000
  O      O         0.567323218771971    0.198847320431268    0.668881857426842  0.0000
  O      O         0.578010014271518    0.098410960288879    0.699893066067296  0.0000
  Si     Si        0.859440101123698    0.561960736447115    0.650851391929568  0.0000
  Si     Si        0.734758049522348    0.561793904037814    0.651127472428079  0.0000
  O      O         0.797082467049899    0.570677656596417    0.668881853632873  0.0000
  O      O         0.897518787703794    0.581364450827407    0.699893173115505  0.0000
  Si     Si        0.346157409168658    0.437323580059404    0.137568633428814  0.0000
  Si     Si        0.345881249082213    0.437490336368501    0.262250681416456  0.0000
  O      O         0.328126895784853    0.428606626214296    0.199926249428798  0.0000
  O      O         0.297115687414511    0.417919828618456    0.099489889681897  0.0000
  Si     Si        0.346157417951516    0.561960697581923    0.863873488652358  0.0000
  Si     Si        0.345881255327568    0.561793939889912    0.739191439254441  0.0000
  O      O         0.328126906007159    0.570677652262960    0.801515872218443  0.0000
  O      O         0.297115694648545    0.581364446210273    0.901952231583213  0.0000
  Si     Si        0.433969102991492    0.349511805052435    0.863873455485748  0.0000
  Si     Si        0.434135937084893    0.349235723706628    0.739191403426182  0.0000
  O      O         0.425252183216100    0.331481343059123    0.801515821097991  0.0000
  O      O         0.414565386958634    0.300470023807391    0.901952140319163  0.0000
  Si     Si        0.646417992908258    0.437323574223478    0.863873491063918  0.0000
  Si     Si        0.646694157714502    0.437490330011288    0.739191441858579  0.0000
  O      O         0.664448507284395    0.428606619876473    0.801515875191841  0.0000
  O      O         0.695459715227653    0.417919826287742    0.901952235726454  0.0000
  Si     Si        0.558606306824271    0.649772467536497    0.863873455340641  0.0000
  Si     Si        0.558439475211853    0.650048546429633    0.739191402274587  0.0000
  O      O         0.567323226272549    0.667802927296302    0.801515820364228  0.0000
  O      O         0.578010021018374    0.698814250728801    0.901952139748090  0.0000
  Si     Si        0.646417990687472    0.561960690069128    0.137568628195750  0.0000
  Si     Si        0.646694157866740    0.561793939991344    0.262250677418700  0.0000
  O      O         0.664448506124521    0.570677646867559    0.199926243320345  0.0000
  O      O         0.695459711757475    0.581364439671977    0.099489883178058  0.0000
  Si     Si        0.433969105250061    0.649772468112896    0.137568661604587  0.0000
  Si     Si        0.434135937937822    0.650048549606156    0.262250714371426  0.0000
  O      O         0.425252186513459    0.667802930095037    0.199926296136619  0.0000
  O      O         0.414565393203445    0.698814250452947    0.099489974585188  0.0000
  Si     Si        0.558606295833359    0.349511801799822    0.137568670285751  0.0000
  Si     Si        0.558439466755481    0.349235730912841    0.262250725493700  0.0000
  O      O         0.567323214456941    0.331481353779461    0.199926307102904  0.0000
  O      O         0.578009999999949    0.300470000000018    0.099489999999946  0.0000
