data_ReferenceDataBase/RHOG4-ZSM-25
_audit_creation_method             Generated by GULP
_audit_author_name                 Salvador R. G. Balestra
_symmetry_space_group_name_H-M     'P 1             '
_symmetry_Int_Tables_number        1

loop_
_symmetry_equiv_pos_site_id
_symmetry_equiv_pos_as_xyz
   1     +x,+y,+z                
_cell_length_a                       44.2240
_cell_length_b                       44.2240
_cell_length_c                       44.2240
_cell_angle_alpha                   90.0000
_cell_angle_beta                    90.0000
_cell_angle_gamma                   90.0000

loop_
_atom_site_label
_atom_site_type_symbol
_atom_site_fract_x
_atom_site_fract_y
_atom_site_fract_z
_atom_site_charge
  Si     Si        0.853778111597812    0.583593160714557    0.534602748583281  0.0000
  Si     Si        0.812673023064017    0.639012770406194    0.534981375479769  0.0000
  Si     Si        0.742867622371830    0.639421639336441    0.534976290307247  0.0000
  Si     Si        0.701906510880131    0.583708036478104    0.534736560865763  0.0000
  Si     Si        0.632506588670796    0.583717303295168    0.534589576430068  0.0000
  Si     Si        0.576913107944000    0.083514188537558    0.034612560558158  0.0000
  Si     Si        0.534734171410896    0.137874673496287    0.035012597364471  0.0000
  Si     Si        0.694251602384410    0.645445590349048    0.812993407006523  0.0000
  Si     Si        0.743718542758358    0.576374494388361    0.694919831161771  0.0000
  Si     Si        0.694478940695816    0.645534262011726    0.743702413651697  0.0000
  Si     Si        0.694828135900997    0.813465857727781    0.575769972804266  0.0000
  Si     Si        0.965381950269079    0.693777946158018    0.644716997257109  0.0000
  Si     Si        0.924676827738267    0.805882709310346    0.534865890453480  0.0000
  Si     Si        0.923914958687752    0.354417576079092    0.749282704893486  0.0000
  O      O         0.832531418151648    0.610723438726823    0.545568296284281  0.0000
  O      O         0.777717665828468    0.630937572516230    0.540787219875546  0.0000
  O      O         0.722690249838025    0.611298276577837    0.545516571953878  0.0000
  O      O         0.667173423260148    0.593470158757806    0.539511145692931  0.0000
  O      O         0.111535922217066    0.593926379787669    0.538832034972386  0.0000
  O      O         0.555532358958814    0.110396287505327    0.045983626267004  0.0000
  O      O         0.685845896335325    0.610635140281820    0.819274580056416  0.0000
  O      O         0.704271717145873    0.778448742787031    0.650559930918906  0.0000
  O      O         0.738518985478499    0.684635530584891    0.610832704466281  0.0000
  O      O         0.778448451528449    0.570248634672252    0.703568548185086  0.0000
  O      O         0.332987941249228    0.555130771264192    0.176853547624495  0.0000
  O      O         0.332192457442235    0.554964638419285    0.267132826063942  0.0000
  O      O         0.934261983824930    0.777140136731814    0.666440523953208  0.0000
  O      O         0.945517382731615    0.833674861853579    0.455696050582770  0.0000
  O      O         0.777992163229163    0.934577785055739    0.444294435722767  0.0000
  O      O         0.778230282621771    0.666206333894238    0.844152444338645  0.0000
  O      O         0.741108510070567    0.111178526773413    0.348503401211017  0.0000
  O      O         0.610942567276728    0.070347755872522    0.241884465483070  0.0000
  O      O         0.890036069500308    0.540972455278039    0.185021600901610  0.0000
  O      O         0.344536997448431    0.279490862474452    0.056176671978285  0.0000
  Si     Si        0.749980551151885    0.354320972245353    0.145881243729779  0.0000
  Si     Si        0.249980561006221    0.924151836762894    0.576050158048061  0.0000
  O      O         0.818695407812884    0.353158241885861    0.500056798682815  0.0000
  O      O         0.929950765722115    0.796632141572363    0.500056968042616  0.0000
  O      O         0.846837102623050    0.574859968206117    0.500056775658430  0.0000
  O      O         0.736861711492391    0.647563959745880    0.500056806646796  0.0000
  O      O         0.708596862297204    0.575153214507964    0.500056954840764  0.0000
  O      O         0.626749650936089    0.573775125486466    0.500056804011661  0.0000
  O      O         0.569785030829054    0.075111792307582    0.000056738724014  0.0000
  O      O         0.540611659730229    0.145757283602476    0.000056925594987  0.0000
  O      O         0.850624294457841    0.500145317409927    0.204105160717106  0.0000
  O      O         0.569479198173806    0.053807248272441    0.053718825547474  0.0000
  O      O         0.846070406409717    0.554171803117725    0.554083434692614  0.0000
  O      O         0.710167289752920    0.554379560123480    0.554291193818922  0.0000
  O      O         0.623517780077893    0.555273890606953    0.555185522771635  0.0000
  O      O         0.734594358936917    0.666196298979309    0.666107929573043  0.0000
  O      O         0.335899251977083    0.336064045600618    0.042389730394183  0.0000
  O      O         0.664758849527426    0.664923612772099    0.821149163644354  0.0000
  O      O         0.724448740789836    0.724613508613146    0.568380748673380  0.0000
  O      O         0.612271916642130    0.612436684129513    0.543664049234337  0.0000
  O      O         0.723122139384327    0.654326776345917    0.723198533557176  0.0000
  O      O         0.499980365328059    0.128886147378840    0.040868453118098  0.0000
  Si     Si        0.416532399920281    0.853943001580958    0.534602881086882  0.0000
  Si     Si        0.361112791766986    0.812837892563957    0.534981275092159  0.0000
  Si     Si        0.360704206050802    0.743032487540333    0.534976380227615  0.0000
  Si     Si        0.416417801485006    0.702071371127734    0.534736447567040  0.0000
  Si     Si        0.416408304469827    0.632671456771524    0.534589673915091  0.0000
  Si     Si        0.916611382696964    0.577077995643058    0.034612741167842  0.0000
  Si     Si        0.862250868526735    0.534899078584052    0.035012508317610  0.0000
  Si     Si        0.354680229505123    0.694416250788388    0.812993505790990  0.0000
  Si     Si        0.423751124496853    0.743883185595911    0.694919707333868  0.0000
  Si     Si        0.354591346073386    0.694643818665341    0.743702517931207  0.0000
  Si     Si        0.186659968246599    0.694993063391527    0.575769871587630  0.0000
  Si     Si        0.306347628022861    0.965546807522780    0.644717125647282  0.0000
  Si     Si        0.194243183550235    0.924841719991898    0.534865758350252  0.0000
  Si     Si        0.645708250569000    0.924079618091944    0.749282550918802  0.0000
  O      O         0.389401948816300    0.832696471933421    0.545568318031490  0.0000
  O      O         0.369188132919029    0.777882580693046    0.540787218338786  0.0000
  O      O         0.388827723278077    0.722855274126351    0.545516556302766  0.0000
  O      O         0.406655533967181    0.667338332671716    0.539511126878692  0.0000
  O      O         0.406199351068156    0.111700872615118    0.538832045046214  0.0000
  O      O         0.889729065124494    0.555697447338626    0.045983660162961  0.0000
  O      O         0.389490725944581    0.686010659379596    0.819274580937883  0.0000
  O      O         0.221676823179963    0.704436508345556    0.650559917593995  0.0000
  O      O         0.315490168129490    0.738683729963399    0.610832854488160  0.0000
  O      O         0.429877071958225    0.778613045835220    0.703568554650531  0.0000
  O      O         0.444995267893126    0.333152364734067    0.176853553398526  0.0000
  O      O         0.445160815213025    0.332357511657960    0.267132830331514  0.0000
  O      O         0.222985252615845    0.934426758046907    0.666440226907900  0.0000
  O      O         0.166450490061536    0.945681817972142    0.455696029802180  0.0000
  O      O         0.065547926389309    0.778157303634922    0.444294114458358  0.0000
  O      O         0.333919127736211    0.778394777276878    0.844152423687969  0.0000
  O      O         0.888947340996777    0.741273323405127    0.348503410599705  0.0000
  O      O         0.929777982793957    0.611107161582680    0.241884496754698  0.0000
  O      O         0.459153230975994    0.890200649120812    0.185021581225645  0.0000
  O      O         0.720634541955057    0.344701834076600    0.056176971915366  0.0000
  Si     Si        0.645804857089253    0.750145177217835    0.145881165660975  0.0000
  Si     Si        0.075973756285447    0.250145145765534    0.576050278780618  0.0000
  O      O         0.646967465279942    0.818860174423007    0.500056947548702  0.0000
  O      O         0.203493580818670    0.930115539556056    0.500056774515576  0.0000
  O      O         0.425265755556981    0.847001868344636    0.500056970377697  0.0000
  O      O         0.352561754882455    0.737026479483661    0.500056942036944  0.0000
  O      O         0.424972503386524    0.708761627109749    0.500056795798698  0.0000
  O      O         0.426350589747344    0.626914413986072    0.500056948442562  0.0000
  O      O         0.925013979082377    0.569949803235577    0.000056986147165  0.0000
  O      O         0.854368418366121    0.540776456551838    0.000056780295025  0.0000
  O      O         0.499980557285185    0.850789084695494    0.204105152706701  0.0000
  O      O         0.946318126232392    0.569643907746631    0.053719233029338  0.0000
  O      O         0.445953593693541    0.846235173783352    0.554083756415287  0.0000
  O      O         0.445746413708259    0.710332021227555    0.554290935185327  0.0000
  O      O         0.444851608345334    0.623682595616199    0.555185742097939  0.0000
  O      O         0.333929199051579    0.734759172236604    0.666108146719942  0.0000
  O      O         0.664061391185377    0.336064326383123    0.042389680590117  0.0000
  O      O         0.335202335160637    0.664923375011355    0.821149141834043  0.0000
  O      O         0.275512463654888    0.724613252252496    0.568380713639548  0.0000
  O      O         0.387688824161866    0.612436889812741    0.543664077273590  0.0000
  O      O         0.345798888076055    0.723287119036448    0.723198750028454  0.0000
  O      O         0.871239566955273    0.500145331862537    0.040868464684592  0.0000
  Si     Si        0.146182833763861    0.416697314460502    0.534602751923589  0.0000
  Si     Si        0.187287922297815    0.361277704820682    0.534981378665793  0.0000
  Si     Si        0.257093323073866    0.360868838296472    0.534976293700564  0.0000
  Si     Si        0.298054432508663    0.416582442667423    0.534736567082573  0.0000
  Si     Si        0.367454354880509    0.416573176812821    0.534589583986699  0.0000
  Si     Si        0.423047840401638    0.916776315563583    0.034612591581047  0.0000
  Si     Si        0.465226755235800    0.862415806350391    0.035012637317275  0.0000
  Si     Si        0.305709343523915    0.354844894879849    0.812993405025592  0.0000
  Si     Si        0.256242403839545    0.423915986496633    0.694919831592421  0.0000
  Si     Si        0.305482009141391    0.354756222954514    0.743702409938843  0.0000
  Si     Si        0.305132808567134    0.186824619977364    0.575769976883485  0.0000
  Si     Si        0.034578996251589    0.306512530341477    0.644716998701695  0.0000
  Si     Si        0.075284116481694    0.194407766934245    0.534865893489939  0.0000
  Si     Si        0.076045992497833    0.645872905640666    0.749282703608314  0.0000
  O      O         0.167429526423145    0.389567035882323    0.545568299450206  0.0000
  O      O         0.222243279349572    0.369352903908139    0.540787222673445  0.0000
  O      O         0.277270694376195    0.388992201525027    0.545516577041946  0.0000
  O      O         0.332787520272350    0.406820321078770    0.539511151800329  0.0000
  O      O         0.888425024507936    0.406364098855687    0.538832033583126  0.0000
  O      O         0.444428592794779    0.889894218173005    0.045983647393330  0.0000
  O      O         0.314115051914972    0.389655344575143    0.819274580379891  0.0000
  O      O         0.295689227313221    0.221841735310854    0.650559934444358  0.0000
  O      O         0.261441960682751    0.315654945671204    0.610832706551319  0.0000
  O      O         0.221512495169927    0.430041844026583    0.703568550428681  0.0000
  O      O         0.666972977963225    0.445159699924611    0.176853543525360  0.0000
  O      O         0.667768480673322    0.445325838542491    0.267132812285133  0.0000
  O      O         0.065698962742064    0.223150340220914    0.666440527289162  0.0000
  O      O         0.054443557778415    0.166615621730641    0.455696052011967  0.0000
  O      O         0.221968790020831    0.065712695564811    0.444294444817972  0.0000
  O      O         0.221730658142558    0.334084148960805    0.844152435111939  0.0000
  O      O         0.258852430186916    0.889111971966798    0.348503403219767  0.0000
  O      O         0.389018378910825    0.929942752019610    0.241884477528066  0.0000
  O      O         0.109924875049722    0.459318022877024    0.185021601938304  0.0000
  O      O         0.655423915141059    0.720799630562754    0.056176714706759  0.0000
  Si     Si        0.249980410555509    0.645969526917107    0.145881260208901  0.0000
  Si     Si        0.749980379464004    0.076138643713622    0.576050156775062  0.0000
  O      O         0.181265537813625    0.647132231422610    0.500056800928268  0.0000
  O      O         0.070010177084175    0.203658337542365    0.500056971913133  0.0000
  O      O         0.153123842244540    0.425430505934321    0.500056778663867  0.0000
  O      O         0.263099234905273    0.352726518894926    0.500056809860136  0.0000
  O      O         0.291364079479879    0.425137265897365    0.500056961957711  0.0000
  O      O         0.373211293287657    0.426515354580141    0.500056811883896  0.0000
  O      O         0.430175911080473    0.925178731786410    0.000056771313693  0.0000
  O      O         0.459349253999436    0.854533168980754    0.000056968829081  0.0000
  O      O         0.149336644210692    0.500145161500111    0.204105172526682  0.0000
  O      O         0.430481751111183    0.946483244350714    0.053718874332315  0.0000
  O      O         0.153890540854199    0.446118671467824    0.554083438447739  0.0000
  O      O         0.289793654307555    0.445910919350210    0.554291199301714  0.0000
  O      O         0.376443164060163    0.445016590424267    0.555185528942844  0.0000
  O      O         0.265366588323916    0.334094181001152    0.666107929799255  0.0000
  O      O         0.664061689252748    0.664226451029384    0.042389756678673  0.0000
  O      O         0.335202092410930    0.335366867812155    0.821149165847776  0.0000
  O      O         0.275512205846050    0.275676968804929    0.568380749929865  0.0000
  O      O         0.387689025797492    0.387853795656654    0.543664058682146  0.0000
  O      O         0.276838808552738    0.345963707834439    0.723198532918328  0.0000
  O      O         0.499980567888653    0.871404324000645    0.040868468039012  0.0000
  Si     Si        0.583428551906164    0.146347474764717    0.534602888859579  0.0000
  Si     Si        0.638848159430532    0.187452583931118    0.534981276707353  0.0000
  Si     Si        0.639256735996678    0.257257989394481    0.534976382640797  0.0000
  Si     Si        0.583543140485869    0.298219109198311    0.534736444144515  0.0000
  Si     Si        0.583552644117552    0.367619021870344    0.534589676653910  0.0000
  Si     Si        0.083349562640020    0.423212485731826    0.034612738300302  0.0000
  Si     Si        0.137710074942042    0.465391405121933    0.035012509763969  0.0000
  Si     Si        0.645280716972178    0.305874235200797    0.812993504986603  0.0000
  Si     Si        0.576209822778179    0.256407295374113    0.694919709536303  0.0000
  Si     Si        0.645369601723178    0.305646669474995    0.743702513607075  0.0000
  Si     Si        0.813300974549789    0.305297411997203    0.575769871299364  0.0000
  Si     Si        0.693613320644805    0.034743666559792    0.644717128367942  0.0000
  Si     Si        0.805717754930173    0.075448757112950    0.534865753359949  0.0000
  Si     Si        0.354252695965653    0.076210856385437    0.749282547582006  0.0000
  O      O         0.610559009139205    0.167593997474647    0.545568324965823  0.0000
  O      O         0.630772812003592    0.222407895062638    0.540787218360270  0.0000
  O      O         0.611133213410994    0.277435198673233    0.545516551561867  0.0000
  O      O         0.593305416620944    0.332952145476275    0.539511127292261  0.0000
  O      O         0.593761593679424    0.888589604166785    0.538832042275766  0.0000
  O      O         0.110231878149292    0.444593035226973    0.045983659248028  0.0000
  O      O         0.610470220717574    0.314279824122447    0.819274587704685  0.0000
  O      O         0.778284123271497    0.295853972432785    0.650559919224127  0.0000
  O      O         0.684470778519059    0.261606750154254    0.610832859888343  0.0000
  O      O         0.570083873176112    0.221677436701329    0.703568564525576  0.0000
  O      O         0.554965690249556    0.667138119224097    0.176853553483903  0.0000
  O      O         0.554800121646299    0.667932959207011    0.267132841993153  0.0000
  O      O         0.776975696704612    0.065863718493662    0.666440222342634  0.0000
  O      O         0.833510451150736    0.054608663060409    0.455696030013801  0.0000
  O      O         0.934413015541042    0.222133174408770    0.444294110769187  0.0000
  O      O         0.666041830065154    0.221895696555190    0.844152396970311  0.0000
  O      O         0.111013603372766    0.259017157315437    0.348503411786043  0.0000
  O      O         0.070182961622298    0.389183314626995    0.241884497746374  0.0000
  O      O         0.540807693306208    0.110089961952043    0.185021501708356  0.0000
  O      O         0.279326391665758    0.655588658259646    0.056176981678003  0.0000
  Si     Si        0.354156044524992    0.250145344154532    0.145881132053151  0.0000
  Si     Si        0.923987188978632    0.750145330100063    0.576050275330874  0.0000
  O      O         0.352993478518137    0.181430301097475    0.500056953568270  0.0000
  O      O         0.796467355183317    0.070174940216624    0.500056769058631  0.0000
  O      O         0.574695199089816    0.153288617099502    0.500056980073291  0.0000
  O      O         0.647399192756615    0.263264000705927    0.500056946100085  0.0000
  O      O         0.574988433750422    0.291528860013607    0.500056791361259  0.0000
  O      O         0.573610366343028    0.373376067282267    0.500056950933514  0.0000
  O      O         0.074946969288626    0.430340678390732    0.000056982704543  0.0000
  O      O         0.145592529551443    0.459514026302352    0.000056782556588  0.0000
  O      O         0.499980365458536    0.149501513570651    0.204105052667205  0.0000
  O      O         0.053642817805947    0.430646571976076    0.053719228747440  0.0000
  O      O         0.554007361180193    0.154055304939689    0.554083768327193  0.0000
  O      O         0.554214527551142    0.289958462803526    0.554290932007389  0.0000
  O      O         0.555109332231752    0.376607875576631    0.555185736991836  0.0000
  O      O         0.666031748915340    0.265531305174789    0.666108151245077  0.0000
  O      O         0.335899548130690    0.664226159283430    0.042389725717402  0.0000
  O      O         0.664758612798487    0.335367108712954    0.821149147055210  0.0000
  O      O         0.724448474826334    0.275677234265528    0.568380713647606  0.0000
  O      O         0.612272119921057    0.387853594189511    0.543664086165327  0.0000
  O      O         0.654162060305112    0.277003364211841    0.723198752506731  0.0000
  O      O         0.128721375496942    0.500145151768912    0.040868464558846  0.0000
  Si     Si        0.853778109273032    0.416697315079479    0.465510999281179  0.0000
  Si     Si        0.812673019636814    0.361277705892776    0.465132372683900  0.0000
  Si     Si        0.742867619230191    0.360868838841740    0.465137461991718  0.0000
  Si     Si        0.701906508799876    0.416582443785291    0.465377190141632  0.0000
  Si     Si        0.632506586495646    0.416573177392690    0.465524172636060  0.0000
  Si     Si        0.576913105186803    0.916776317968388    0.965501171817965  0.0000
  Si     Si        0.534734187897345    0.862415812224224    0.965101115024188  0.0000
  Si     Si        0.694251626388225    0.354844883568298    0.187120331853821  0.0000
  Si     Si        0.743718528111645    0.423915991264647    0.305193908533604  0.0000
  Si     Si        0.694478930048930    0.354756218077297    0.256411325444033  0.0000
  Si     Si        0.694828129751393    0.186824626644253    0.424343766112847  0.0000
  Si     Si        0.965381947145703    0.306512533716000    0.355396752417136  0.0000
  Si     Si        0.924676825086722    0.194407769032457    0.465247852648903  0.0000
  Si     Si        0.923914948788402    0.645872899558667    0.250831048919362  0.0000
  O      O         0.832531415550294    0.389567037057068    0.454545452723017  0.0000
  O      O         0.777717662282688    0.369352905851515    0.459326530980803  0.0000
  O      O         0.722690246440313    0.388992201919656    0.454597181978374  0.0000
  O      O         0.667173421147474    0.406820322647798    0.460602603802956  0.0000
  O      O         0.111535920315494    0.406364096610546    0.461281716789512  0.0000
  O      O         0.555532350466924    0.889894225742158    0.954130109168714  0.0000
  O      O         0.685845897334031    0.389655328988080    0.180839155313234  0.0000
  O      O         0.704271697351199    0.221841752245974    0.349553810893465  0.0000
  O      O         0.738518978752033    0.315654956813574    0.389281045065034  0.0000
  O      O         0.778448437880265    0.430041848286664    0.296545191764139  0.0000
  O      O         0.332987927921693    0.445159731266188    0.823260200815252  0.0000
  O      O         0.332192447473725    0.445325847558519    0.732980914696296  0.0000
  O      O         0.934261974345042    0.223150351474808    0.333673212142181  0.0000
  O      O         0.945517386278765    0.166615621588292    0.544417692324697  0.0000
  O      O         0.777992159598493    0.065712697144578    0.555819302760014  0.0000
  O      O         0.778230318271286    0.334084190605626    0.155961287769926  0.0000
  O      O         0.741108523776798    0.889111967743664    0.651610340680815  0.0000
  O      O         0.610942574408763    0.929942751274300    0.758229274719053  0.0000
  O      O         0.890036069205685    0.459318026806599    0.815092152912053  0.0000
  O      O         0.344537025969846    0.720799639801990    0.943937039552645  0.0000
  Si     Si        0.749980529549793    0.645969534331168    0.854232496147787  0.0000
  Si     Si        0.249980568647613    0.076138646092609    0.424063590417304  0.0000
  O      O         0.818695410523706    0.647132231403691    0.500056948890014  0.0000
  O      O         0.929950766446640    0.203658340054391    0.500056774101086  0.0000
  O      O         0.846837101132067    0.425430507697827    0.500056972448067  0.0000
  O      O         0.736861709745618    0.352726518084865    0.500056945795506  0.0000
  O      O         0.708596858148574    0.425137269160103    0.500056795936305  0.0000
  O      O         0.626749646056027    0.426515347756813    0.500056946163872  0.0000
  O      O         0.569785032815887    0.925178730430897    0.000056992300292  0.0000
  O      O         0.540611689387820    0.854533170917790    0.000056782179525  0.0000
  O      O         0.850624304101219    0.500145164564228    0.796008576198632  0.0000
  O      O         0.569479200442598    0.946483250500557    0.946394892292457  0.0000
  O      O         0.846070402710142    0.446118671192065    0.446030311277913  0.0000
  O      O         0.710167289955843    0.445910917527988    0.445822554428715  0.0000
  O      O         0.623517779077451    0.445016594864588    0.444928231793645  0.0000
  O      O         0.734594349383059    0.334094192455501    0.334005823714292  0.0000
  O      O         0.335899245884439    0.664226462326147    0.957723998680164  0.0000
  O      O         0.664758904382590    0.335366831606743    0.178964546701572  0.0000
  O      O         0.724448734516842    0.275676972319170    0.431732993025121  0.0000
  O      O         0.612271914708358    0.387853797545065    0.456449694585220  0.0000
  O      O         0.723122116264327    0.345963696650736    0.276915220217200  0.0000
  O      O         0.499980375142403    0.871404330086606    0.959245285478653  0.0000
  Si     Si        0.583428550115146    0.853943007434757    0.465510859569491  0.0000
  Si     Si        0.638848154965898    0.812837892465739    0.465132469509862  0.0000
  Si     Si        0.639256740492845    0.743032487564636    0.465137366756859  0.0000
  Si     Si        0.583543145908434    0.702071370567830    0.465377303161643  0.0000
  Si     Si        0.583552642382785    0.632671456746538    0.465524077685361  0.0000
  Si     Si        0.083349563869179    0.577078002598570    0.965501017053052  0.0000
  Si     Si        0.137710077956896    0.534899085916296    0.965101239009930  0.0000
  Si     Si        0.645280709136426    0.694416240298776    0.187120244074206  0.0000
  Si     Si        0.576209821324208    0.743883181805128    0.305194043648406  0.0000
  Si     Si        0.645369595954486    0.694643811088455    0.256411232973517  0.0000
  Si     Si        0.813300978776941    0.694993063765552    0.424343877751983  0.0000
  Si     Si        0.693613315260471    0.965546827704047    0.355396611764470  0.0000
  Si     Si        0.805717757972070    0.924841722140720    0.465247984533163  0.0000
  Si     Si        0.354252703006978    0.924079619275687    0.250831202037588  0.0000
  O      O         0.610558999155485    0.832696473229396    0.454545425580555  0.0000
  O      O         0.630772812069205    0.777882580400433    0.459326528145207  0.0000
  O      O         0.611133223132738    0.722855273469920    0.454597191847856  0.0000
  O      O         0.593305414116911    0.667338332214184    0.460602625114742  0.0000
  O      O         0.593761592132785    0.111700880864729    0.461281704133180  0.0000
  O      O         0.110231882439303    0.555697459143278    0.954130093418849  0.0000
  O      O         0.610470211097192    0.686010656675514    0.180839166795145  0.0000
  O      O         0.778284122148464    0.704436504327140    0.349553830392909  0.0000
  O      O         0.684470779239907    0.738683732208426    0.389280891839405  0.0000
  O      O         0.570083871775638    0.778613039989163    0.296545189094715  0.0000
  O      O         0.554965704706244    0.333152375856490    0.823260196027402  0.0000
  O      O         0.554800129306401    0.332357524351153    0.732980904322676  0.0000
  O      O         0.776975690212924    0.934426761808529    0.333673519522168  0.0000
  O      O         0.833510455913454    0.945681817443252    0.544417710316672  0.0000
  O      O         0.934413020359841    0.778157300781130    0.555819627422470  0.0000
  O      O         0.666041824889827    0.778394767775057    0.155961333593053  0.0000
  O      O         0.111013603301529    0.741273324599806    0.651610333538074  0.0000
  O      O         0.070182957052368    0.611107167817646    0.758229254698842  0.0000
  O      O         0.540807709654821    0.890200639297664    0.815092154957598  0.0000
  O      O         0.279326396957372    0.344701837237875    0.943936759258598  0.0000
  Si     Si        0.354156092420008    0.750145184162961    0.854232588837258  0.0000
  Si     Si        0.923987184701774    0.250145147523137    0.424063466358295  0.0000
  O      O         0.352993484998293    0.818860175221668    0.500056796367115  0.0000
  O      O         0.796467360808364    0.930115540411077    0.500056968737470  0.0000
  O      O         0.574695192210681    0.847001871609037    0.500056769424966  0.0000
  O      O         0.647399192778868    0.737026479054292    0.500056804808158  0.0000
  O      O         0.574988445293204    0.708761628211230    0.500056954759714  0.0000
  O      O         0.573610356437725    0.626914414543819    0.500056803234143  0.0000
  O      O         0.074946971958235    0.569949806172439    0.000056772262729  0.0000
  O      O         0.145592538460474    0.540776462945795    0.000056965770350  0.0000
  O      O         0.499980395783098    0.850789059624794    0.796008583090589  0.0000
  O      O         0.053642819777056    0.569643913738506    0.946394526098721  0.0000
  O      O         0.554007357528216    0.846235189933393    0.446029977989614  0.0000
  O      O         0.554214531924843    0.710332018245920    0.445822817578866  0.0000
  O      O         0.555109339438032    0.623682596227377    0.444928007625222  0.0000
  O      O         0.666031749090817    0.734759173768186    0.334005598662466  0.0000
  O      O         0.335899553869294    0.336064347819263    0.957724004704628  0.0000
  O      O         0.664758596732738    0.664923358874697    0.178964610492846  0.0000
  O      O         0.724448482391502    0.724613251269225    0.431733034539657  0.0000
  O      O         0.612272123204154    0.612436889976533    0.456449675931150  0.0000
  O      O         0.654162056516159    0.723287113487709    0.276914997291877  0.0000
  O      O         0.128721370529681    0.500145340968199    0.959245286046660  0.0000
  Si     Si        0.146182834664835    0.583593161926022    0.465510999054109  0.0000
  Si     Si        0.187287924600459    0.639012770920619    0.465132374136045  0.0000
  Si     Si        0.257093324790331    0.639421641493731    0.465137461056064  0.0000
  Si     Si        0.298054436600337    0.583708038942518    0.465377193022062  0.0000
  Si     Si        0.367454358612151    0.583717303239999    0.465524176566444  0.0000
  Si     Si        0.423047834245470    0.083514157538463    0.965501146329797  0.0000
  Si     Si        0.465226758907964    0.137874652823747    0.965101064129358  0.0000
  Si     Si        0.305709340236316    0.645445593868619    0.187120345811708  0.0000
  Si     Si        0.256242410190622    0.576374490545788    0.305193920996117  0.0000
  Si     Si        0.305482008799781    0.645534260884179    0.256411339524797  0.0000
  Si     Si        0.305132813821855    0.813465859425381    0.424343773744032  0.0000
  Si     Si        0.034578994835680    0.693777946202625    0.355396751958340  0.0000
  Si     Si        0.075284117642006    0.805882711864058    0.465247852321157  0.0000
  Si     Si        0.076045994251620    0.354417576031089    0.250831046774602  0.0000
  O      O         0.167429528620078    0.610723440073754    0.454545452474323  0.0000
  O      O         0.222243281938157    0.630937572949949    0.459326529839718  0.0000
  O      O         0.277270699062540    0.611298279440298    0.454597181148485  0.0000
  O      O         0.332787524382086    0.593470160377136    0.460602608260800  0.0000
  O      O         0.888425023874296    0.593926376532174    0.461281713449429  0.0000
  O      O         0.444428592789608    0.110396238458196    0.954130063898734  0.0000
  O      O         0.314115048478366    0.610635144967534    0.180839171742540  0.0000
  O      O         0.295689231594765    0.778448743060235    0.349553814743998  0.0000
  O      O         0.261441963561152    0.684635533290503    0.389281047394876  0.0000
  O      O         0.221512501491163    0.570248633032301    0.296545201049162  0.0000
  O      O         0.666973014408983    0.555130757733302    0.823260199503617  0.0000
  O      O         0.667768500531825    0.554964639010871    0.732980915705947  0.0000
  O      O         0.065698964476160    0.777140135477077    0.333673223817691  0.0000
  O      O         0.054443559603843    0.833674858869437    0.544417692630521  0.0000
  O      O         0.221968778180982    0.934577782702232    0.555819307447488  0.0000
  O      O         0.221730656650909    0.666206325041214    0.155961311886444  0.0000
  O      O         0.258852424996979    0.111178506835133    0.651610342993822  0.0000
  O      O         0.389018371975789    0.070347723119838    0.758229271962757  0.0000
  O      O         0.109924877354044    0.540972456997663    0.815092153393664  0.0000
  O      O         0.655423939401241    0.279490844936887    0.943936994837540  0.0000
  Si     Si        0.249980408750785    0.354320953243755    0.854232485576221  0.0000
  Si     Si        0.749980379023266    0.924151841710550    0.424063585356311  0.0000
  O      O         0.181265535084271    0.353158243027067    0.500056952181629  0.0000
  O      O         0.070010179125744    0.796632142079196    0.500056774227556  0.0000
  O      O         0.153123842827261    0.574859969896309    0.500056972141118  0.0000
  O      O         0.263099234080685    0.647563961602787    0.500056944920926  0.0000
  O      O         0.291364085269282    0.575153215532882    0.500056798694205  0.0000
  O      O         0.373211296629208    0.573775125940165    0.500056949037928  0.0000
  O      O         0.430175910281344    0.075111749482217    0.000056966646536  0.0000
  O      O         0.459349271599643    0.145757270827979    0.000056735506964  0.0000
  O      O         0.149336642246889    0.500145319707112    0.796008577295091  0.0000
  O      O         0.430481730535295    0.053807217572383    0.946394877771570  0.0000
  O      O         0.153890540669225    0.554171804385047    0.446030312949584  0.0000
  O      O         0.289793655735012    0.554379563456560    0.445822560215547  0.0000
  O      O         0.376443164754804    0.555273889694412    0.444928230372074  0.0000
  O      O         0.265366590634269    0.666196295588634    0.334005825221533  0.0000
  O      O         0.664061731483437    0.336064030727845    0.957723947721602  0.0000
  O      O         0.335202089235230    0.664923620187219    0.178964584575442  0.0000
  O      O         0.275512207061893    0.724613511246707    0.431733002839845  0.0000
  O      O         0.387689031859251    0.612436682496526    0.456449701717203  0.0000
  O      O         0.276838811344059    0.654326774753206    0.276915221285752  0.0000
  O      O         0.499980571144327    0.128886150341412    0.959245205065472  0.0000
  Si     Si        0.416532394853166    0.146347477296038    0.465510867370523  0.0000
  Si     Si        0.361112786402185    0.187452584681839    0.465132475259928  0.0000
  Si     Si        0.360704207850342    0.257257989942903    0.465137369897819  0.0000
  Si     Si        0.416417802053180    0.298219109620245    0.465377305314727  0.0000
  Si     Si        0.416408294231582    0.367619023663475    0.465524083267100  0.0000
  Si     Si        0.916611380201210    0.423212476388507    0.965501013389244  0.0000
  Si     Si        0.862250869255243    0.465391398792439    0.965101235163722  0.0000
  Si     Si        0.354680234422105    0.305874257659330    0.187120231778515  0.0000
  Si     Si        0.423751120667677    0.256407296773300    0.305194032161248  0.0000
  Si     Si        0.354591344431100    0.305646663242573    0.256411217977065  0.0000
  Si     Si        0.186659972039990    0.305297412774326    0.424343879111143  0.0000
  Si     Si        0.306347629403999    0.034743674520811    0.355396610822766  0.0000
  Si     Si        0.194243189305157    0.075448756210011    0.465247987519250  0.0000
  Si     Si        0.645708241390771    0.076210886096425    0.250831192265089  0.0000
  O      O         0.389401939367840    0.167594001097633    0.454545430218454  0.0000
  O      O         0.369188132578815    0.222407896004870    0.459326534236165  0.0000
  O      O         0.388827728337555    0.277435200544689    0.454597197581345  0.0000
  O      O         0.406655527860062    0.332952146783281    0.460602625866836  0.0000
  O      O         0.406199354431346    0.888589605061628    0.461281702083628  0.0000
  O      O         0.889729062841942    0.444593022051259    0.954130090124583  0.0000
  O      O         0.389490735539661    0.314279830689385    0.180839153299927  0.0000
  O      O         0.221676824666646    0.295853973316475    0.349553833013741  0.0000
  O      O         0.315490175510894    0.261606752954929    0.389280888479188  0.0000
  O      O         0.429877075084181    0.221677436542964    0.296545188530958  0.0000
  O      O         0.444995240218903    0.667138108565870    0.823260195520609  0.0000
  O      O         0.445160819863922    0.667932967513133    0.732980905298003  0.0000
  O      O         0.222985248427019    0.065863722334228    0.333673526534541  0.0000
  O      O         0.166450489725923    0.054608657440206    0.544417715044722  0.0000
  O      O         0.065547924696584    0.222133173545114    0.555819633288787  0.0000
  O      O         0.333919091843660    0.221895748958173    0.155961315786439  0.0000
  O      O         0.888947342567752    0.259017153134020    0.651610337168908  0.0000
  O      O         0.929777993707023    0.389183313630860    0.758229258245111  0.0000
  O      O         0.459153236519198    0.110089828911017    0.815092160687551  0.0000
  O      O         0.720634548423200    0.655588654243334    0.943936776189556  0.0000
  Si     Si        0.645804853607107    0.250145283415053    0.854232557878290  0.0000
  Si     Si        0.075973756946431    0.750145329195552    0.424063471594148  0.0000
  O      O         0.646967466508841    0.181430303559538    0.500056797309660  0.0000
  O      O         0.203493581586584    0.070174937817821    0.500056972476674  0.0000
  O      O         0.425265747440122    0.153288612326852    0.500056778358640  0.0000
  O      O         0.352561752124386    0.263263998880885    0.500056807277062  0.0000
  O      O         0.424972505230435    0.291528857047873    0.500056957410629  0.0000
  O      O         0.426350579308721    0.373376063661913    0.500056809090858  0.0000
  O      O         0.925013970190795    0.430340672563313    0.000056769043085  0.0000
  O      O         0.854368407423580    0.459514023256703    0.000056961760452  0.0000
  O      O         0.499980553262256    0.149501400942198    0.796008581290263  0.0000
  O      O         0.946318126161629    0.430646563170589    0.946394524662908  0.0000
  O      O         0.445953586587360    0.154055313445353    0.446029992961756  0.0000
  O      O         0.445746415633181    0.289958463295976    0.445822817244054  0.0000
  O      O         0.444851596749202    0.376607889138994    0.444928016434126  0.0000
  O      O         0.333929194460567    0.265531309623977    0.334005588685679  0.0000
  O      O         0.664061389851555    0.664226150343684    0.957724026422104  0.0000
  O      O         0.335202359398675    0.335367152529976    0.178964619732607  0.0000
  O      O         0.275512471844983    0.275677233482162    0.431733031493656  0.0000
  O      O         0.387688814311810    0.387853592067210    0.456449680964899  0.0000
  O      O         0.345798882958295    0.277003360479673    0.276914982652215  0.0000
  O      O         0.871239577307384    0.500145143730860    0.959245281898133  0.0000
  Si     Si        0.534526349383927    0.853942874133343    0.583504792109599  0.0000
  Si     Si        0.534904976985276    0.812837787387013    0.638924402079572  0.0000
  Si     Si        0.534899889866186    0.743032386888363    0.639333273272404  0.0000
  Si     Si        0.534660159666482    0.702071275734934    0.583619669571574  0.0000
  Si     Si        0.534513175658064    0.632671353242556    0.583628935828519  0.0000
  Si     Si        0.034536186414992    0.577077878022378    0.083425808351438  0.0000
  Si     Si        0.034936232823418    0.534898956898017    0.137786309775906  0.0000
  Si     Si        0.812917011971091    0.694416366879982    0.645357219548785  0.0000
  Si     Si        0.694843432981703    0.743883303243275    0.576286124749555  0.0000
  Si     Si        0.743626017453304    0.694643704979216    0.645445892789590  0.0000
  Si     Si        0.575693575242817    0.694992906920540    0.813377488774924  0.0000
  Si     Si        0.644640597877914    0.965546713424331    0.693689579196076  0.0000
  Si     Si        0.534789496194104    0.924841591686295    0.805794346548242  0.0000
  Si     Si        0.749206294755299    0.924079726718466    0.354329206974129  0.0000
  O      O         0.545491897856598    0.832696180344860    0.610635069320406  0.0000
  O      O         0.540710819470471    0.777882429800711    0.630849205097723  0.0000
  O      O         0.545440169806991    0.722855013030829    0.611209910999510  0.0000
  O      O         0.539434745239096    0.667338187948425    0.593381790080097  0.0000
  O      O         0.538755635068327    0.111700681568153    0.593838015726083  0.0000
  O      O         0.045907245714942    0.555697125941377    0.110307904244416  0.0000
  O      O         0.819198184933080    0.686010657029087    0.610546770181732  0.0000
  O      O         0.650483534062210    0.704436484170852    0.778360374140755  0.0000
  O      O         0.610756306481218    0.738683751637922    0.684547160835039  0.0000
  O      O         0.703492151406064    0.778613212214706    0.570160266628336  0.0000
  O      O         0.176777140532000    0.333152696537693    0.555042389852833  0.0000
  O      O         0.267056420191808    0.332357222141302    0.554876274915928  0.0000
  O      O         0.666364131596604    0.934426746732121    0.777051767203898  0.0000
  O      O         0.455619651538188    0.945682151310309    0.833586485670673  0.0000
  O      O         0.444218045856780    0.778156926725709    0.934489415020782  0.0000
  O      O         0.844076041694962    0.778395048696417    0.666117962899684  0.0000
  O      O         0.348427003453386    0.741273288417049    0.111090154072271  0.0000
  O      O         0.241808072989490    0.611107338903729    0.070259367555632  0.0000
  O      O         0.184945192824084    0.890200831059718    0.540884087716466  0.0000
  O      O         0.056100308887907    0.344701793587570    0.279402480788256  0.0000
  Si     Si        0.145804851412543    0.750145296080803    0.354232586912646  0.0000
  Si     Si        0.575973750049430    0.250145352348961    0.924063433901785  0.0000
  O      O         0.499980397894677    0.818860171761130    0.353069880284873  0.0000
  O      O         0.499980575140792    0.930115534923845    0.796543774385659  0.0000
  O      O         0.499980375372543    0.847001865959667    0.574771603152436  0.0000
  O      O         0.499980406037912    0.737026476899340    0.647475595100699  0.0000
  O      O         0.499980553618764    0.708761626796618    0.575064845775937  0.0000
  O      O         0.499980402410301    0.626914415595558    0.573686759722006  0.0000
  O      O         0.999980366565455    0.569949804162562    0.075023394865954  0.0000
  O      O         0.999980562979512    0.540776454024799    0.145668941782406  0.0000
  O      O         0.204028765696633    0.850789065337465    0.500056949388647  0.0000
  O      O         0.053642467293028    0.569643968894906    0.053718878372188  0.0000
  O      O         0.554007033415368    0.846235168216150    0.554083433245429  0.0000
  O      O         0.554214793521906    0.710332056523578    0.554291194580443  0.0000
  O      O         0.555109121742830    0.623682543454095    0.555185522986636  0.0000
  O      O         0.666031531795489    0.734759120964466    0.666107929725937  0.0000
  O      O         0.042313349051830    0.336064018664321    0.335975659644777  0.0000
  O      O         0.821072770067783    0.664923617100201    0.664835245860679  0.0000
  O      O         0.568304352948882    0.724613509495527    0.724525141169574  0.0000
  O      O         0.543587648832895    0.612436682864473    0.612348317590686  0.0000
  O      O         0.723122137309269    0.723286903822923    0.654238407034948  0.0000
  O      O         0.040792067594175    0.500145145731501    0.128797788240896  0.0000
  Si     Si        0.146182710390006    0.534691247331100    0.583504948698148  0.0000
  Si     Si        0.187287817182064    0.535069643513003    0.638924557807653  0.0000
  Si     Si        0.257093222676470    0.535064747213134    0.639333143255501  0.0000
  Si     Si        0.298054340103505    0.534824813624424    0.583619548590679  0.0000
  Si     Si        0.367454254120828    0.534678037618408    0.583629045996460  0.0000
  Si     Si        0.423047710748816    0.034701111032901    0.083425963123746  0.0000
  Si     Si        0.465226621643440    0.035100892964282    0.137786480192975  0.0000
  Si     Si        0.305709465983843    0.813081873886769    0.645357112780742  0.0000
  Si     Si        0.256242524733006    0.695008078457718    0.576286221696706  0.0000
  Si     Si        0.305481897459769    0.743790884698594    0.645445996292705  0.0000
  Si     Si        0.305132643734612    0.575858241656702    0.813377374118415  0.0000
  Si     Si        0.034578903828315    0.644805494678458    0.693689718366166  0.0000
  Si     Si        0.075283988407364    0.534954127785430    0.805794162469677  0.0000
  Si     Si        0.076046092222819    0.749370916237404    0.354329101262297  0.0000
  O      O         0.167429239872288    0.545656685710831    0.610635399281903  0.0000
  O      O         0.222243129420245    0.540875584075954    0.630849216471005  0.0000
  O      O         0.277270436026363    0.545604921828287    0.611209625827875  0.0000
  O      O         0.332787378534978    0.539599493059898    0.593381816828761  0.0000
  O      O         0.888424840298533    0.538920408707119    0.593837996352617  0.0000
  O      O         0.444428243619239    0.046072040585360    0.110308288022711  0.0000
  O      O         0.314115057854460    0.819362951406706    0.610546617123560  0.0000
  O      O         0.295689200261076    0.650648289168479    0.778360521708017  0.0000
  O      O         0.261441979529691    0.610921224817975    0.684547177407184  0.0000
  O      O         0.221512664011843    0.703656924940866    0.570160273696527  0.0000
  O      O         0.666973342628378    0.176941915988666    0.555042102718489  0.0000
  O      O         0.667768193267179    0.267221205147445    0.554876530111983  0.0000
  O      O         0.065698950469989    0.666528596119588    0.777052094698507  0.0000
  O      O         0.054443892069373    0.455784400447048    0.833586858895029  0.0000
  O      O         0.221968391132708    0.444382475866698    0.934489414463677  0.0000
  O      O         0.221730934253989    0.844240783484467    0.666118214668302  0.0000
  O      O         0.258852398466751    0.348591776696301    0.111089998519800  0.0000
  O      O         0.389018513809294    0.241972894414007    0.070259353683254  0.0000
  O      O         0.109925067128581    0.185109950473309    0.540884109074890  0.0000
  O      O         0.655423880996575    0.056265363634242    0.279402790314847  0.0000
  Si     Si        0.249980529563464    0.145969529770243    0.354232495244329  0.0000
  Si     Si        0.749980578461951    0.576138652432570    0.924063589770727  0.0000
  O      O         0.181265533634368    0.500145313843280    0.353069884894731  0.0000
  O      O         0.070010168229840    0.500145143524697    0.796543765667584  0.0000
  O      O         0.153123843639696    0.500145335716146    0.574771596596634  0.0000
  O      O         0.263099231219003    0.500145309397509    0.647475597071373  0.0000
  O      O         0.291364084889662    0.500145161468246    0.575064846355171  0.0000
  O      O         0.373211294436067    0.500145311232898    0.573686761528767  0.0000
  O      O         0.430175910663560    0.000145354868929    0.075023377746768  0.0000
  O      O         0.459349223683841    0.000145170578849    0.145668951731821  0.0000
  O      O         0.149336647455215    0.204193523915573    0.500056797276283  0.0000
  O      O         0.430481807539028    0.053807595122966    0.053719216280095  0.0000
  O      O         0.153890537381306    0.554172120061611    0.554083753032679  0.0000
  O      O         0.289793690589910    0.554379302350987    0.554290937031080  0.0000
  O      O         0.376443116204970    0.555274105052252    0.555185741965218  0.0000
  O      O         0.265366538495307    0.666196516408021    0.666108146367772  0.0000
  O      O         0.664061360346114    0.042478098928328    0.335975947945234  0.0000
  O      O         0.335202341610803    0.821237512023563    0.664835006514209  0.0000
  O      O         0.275512458020748    0.568469084739142    0.724524881615870  0.0000
  O      O         0.387688822208101    0.543752439884125    0.612348525710321  0.0000
  O      O         0.276838595862732    0.723287119304588    0.654238456771784  0.0000
  O      O         0.499980364956550    0.040956825596527    0.128797755170891  0.0000
  Si     Si        0.465434599545488    0.146347600350665    0.583504797382302  0.0000
  Si     Si        0.465055970239617    0.187452690772216    0.638924406217371  0.0000
  Si     Si        0.465061058695217    0.257258090645419    0.639333275993957  0.0000
  Si     Si        0.465300785342268    0.298219203388105    0.583619673906246  0.0000
  Si     Si        0.465447768465032    0.367619125261865    0.583628939428566  0.0000
  Si     Si        0.965424757729578    0.423212603229123    0.083425803408387  0.0000
  Si     Si        0.965024711461364    0.465391520960551    0.137786307823684  0.0000
  Si     Si        0.187043935029885    0.305874109818137    0.645357223082235  0.0000
  Si     Si        0.305117513377530    0.256407174265272    0.576286127084829  0.0000
  Si     Si        0.256334929690699    0.305646773226750    0.645445895379896  0.0000
  Si     Si        0.424267369000731    0.305297582172847    0.813377488431329  0.0000
  Si     Si        0.355320349628005    0.034743759040767    0.693689577092867  0.0000
  Si     Si        0.465171450632983    0.075448877889241    0.805794342951769  0.0000
  Si     Si        0.250754642513259    0.076210763289938    0.354329213098194  0.0000
  O      O         0.454469052707011    0.167594296443026    0.610635073108706  0.0000
  O      O         0.459250128032866    0.222408048028462    0.630849206865483  0.0000
  O      O         0.454520776341506    0.277435465519187    0.611209915342370  0.0000
  O      O         0.460526199323800    0.332952291010335    0.593381795481458  0.0000
  O      O         0.461205315776774    0.888589790131157    0.593838012805787  0.0000
  O      O         0.954053699333639    0.444593353981394    0.110307900579514  0.0000
  O      O         0.180762761959442    0.314279818042335    0.610546773441348  0.0000
  O      O         0.349477414109797    0.295854004920160    0.778360369035523  0.0000
  O      O         0.389204642611282    0.261606724730847    0.684547162447337  0.0000
  O      O         0.296468794504886    0.221677265448872    0.570160269061812  0.0000
  O      O         0.823183805411557    0.667137778943365    0.555042386264049  0.0000
  O      O         0.732904525256616    0.667933255045155    0.554876272368533  0.0000
  O      O         0.333596814746864    0.065863727604638    0.777051763287598  0.0000
  O      O         0.544341291992961    0.054608306117146    0.833586478796006  0.0000
  O      O         0.555742877315949    0.222133596192488    0.934489413992923  0.0000
  O      O         0.155884904855494    0.221895426972874    0.666117965082978  0.0000
  O      O         0.651533859484857    0.259017188032418    0.111090075872729  0.0000
  O      O         0.758152865736811    0.389183150384288    0.070259354768447  0.0000
  O      O         0.815015750784650    0.110089644604882    0.540884083231945  0.0000
  O      O         0.943860631171898    0.655588680080490    0.279402485446526  0.0000
  Si     Si        0.854156086606199    0.250145181246827    0.354232584216077  0.0000
  Si     Si        0.423987190193867    0.750145147252587    0.924063469495437  0.0000
  O      O         0.499980550574433    0.181430324697599    0.353069893046927  0.0000
  O      O         0.499980371719238    0.070174937999176    0.796543769362547  0.0000
  O      O         0.499980574479983    0.153288605153678    0.574771607099234  0.0000
  O      O         0.499980543459578    0.263263999751952    0.647475594874495  0.0000
  O      O         0.499980390958634    0.291528852403861    0.575064849144234  0.0000
  O      O         0.499980541491650    0.373376061959189    0.573686761891679  0.0000
  O      O         0.999980577454570    0.430340676828120    0.075023389236429  0.0000
  O      O         0.999980381280700    0.459514023677790    0.145668941183905  0.0000
  O      O         0.795932175731293    0.149501415015517    0.500056950709320  0.0000
  O      O         0.946318475466875    0.430646514005646    0.053718874687011  0.0000
  O      O         0.445953913197970    0.154055305589543    0.554083439607132  0.0000
  O      O         0.445746151472880    0.289958423151633    0.554291198808711  0.0000
  O      O         0.444851821556320    0.376607933575406    0.555185526633875  0.0000
  O      O         0.333929417202794    0.265531355143077    0.666107929799739  0.0000
  O      O         0.957647590192639    0.664226457587517    0.335975663788936  0.0000
  O      O         0.178888176283099    0.335366860436044    0.664835248130881  0.0000
  O      O         0.431656594362144    0.275676972109349    0.724525144015091  0.0000
  O      O         0.456373296317236    0.387853797581850    0.612348320200146  0.0000
  O      O         0.276838810872159    0.277003575515321    0.654238411073043  0.0000
  O      O         0.959168877128416    0.500145332291963    0.128797787284655  0.0000
  Si     Si        0.853778235327016    0.465599228916822    0.583504948622461  0.0000
  Si     Si        0.812673128104827    0.465220837989888    0.638924557345088  0.0000
  Si     Si        0.742867722602405    0.465225734445617    0.639333142727904  0.0000
  Si     Si        0.701906605047161    0.465465668057600    0.583619547785468  0.0000
  Si     Si        0.632506691884129    0.465612445755285    0.583629039996907  0.0000
  Si     Si        0.576913222428339    0.965589388822669    0.083425966797953  0.0000
  Si     Si        0.534734319179095    0.965189653249560    0.137786504081588  0.0000
  Si     Si        0.694251480702047    0.187208605974232    0.645357115729397  0.0000
  Si     Si        0.743718417802244    0.305282404617978    0.576286224440906  0.0000
  Si     Si        0.694479050752257    0.256499594390674    0.645446000880362  0.0000
  Si     Si        0.694828299416425    0.424432246463779    0.813377375379979  0.0000
  Si     Si        0.965382045331821    0.355484985363322    0.693689718348735  0.0000
  Si     Si        0.924676958590607    0.465336355370551    0.805794163689792  0.0000
  Si     Si        0.923914846315991    0.250919565162076    0.354329097012649  0.0000
  O      O         0.832531705619271    0.454633793345319    0.610635400101537  0.0000
  O      O         0.777717815819116    0.459414896134298    0.630849216372088  0.0000
  O      O         0.722690508721359    0.454685559213838    0.611209625501287  0.0000
  O      O         0.667173566280590    0.460690990105092    0.593381815576681  0.0000
  O      O         0.111536104863497    0.461370068529621    0.593837996234821  0.0000
  O      O         0.555532683559274    0.954218501751116    0.110308306077932  0.0000
  O      O         0.685845889727201    0.180927530940175    0.610546619247538  0.0000
  O      O         0.704271743526996    0.349642195641648    0.778360524643393  0.0000
  O      O         0.738518969199740    0.389369258105903    0.684547178581169  0.0000
  O      O         0.778448277481745    0.296633554265552    0.570160275568907  0.0000
  O      O         0.332987611234977    0.823348564896959    0.555042102996096  0.0000
  O      O         0.332192743689915    0.733069274134115    0.554876521356545  0.0000
  O      O         0.934261999862032    0.333761884292667    0.777052095329977  0.0000
  O      O         0.945517053498960    0.544506083891687    0.833586860249008  0.0000
  O      O         0.777992558777745    0.555908016977402    0.934489418327195  0.0000
  O      O         0.778230009255695    0.156049691168759    0.666118221206130  0.0000
  O      O         0.741108549402057    0.651698708344726    0.111090007088645  0.0000
  O      O         0.610942396525184    0.758317616148463    0.070259370268023  0.0000
  O      O         0.890035877233156    0.815180525572483    0.540884107779736  0.0000
  O      O         0.344537064637930    0.944025138705856    0.279402800245903  0.0000
  Si     Si        0.749980406631582    0.854320961468436    0.354232490391041  0.0000
  Si     Si        0.249980366161017    0.424151835601023    0.924063582992033  0.0000
  O      O         0.818695406394994    0.500145158813165    0.353069881655328  0.0000
  O      O         0.929950779190474    0.500145339509969    0.796543767405090  0.0000
  O      O         0.846837103261496    0.500145140390260    0.574771595139360  0.0000
  O      O         0.736861714150495    0.500145172806380    0.647475594624902  0.0000
  O      O         0.708596861140762    0.500145320113089    0.575064845909807  0.0000
  O      O         0.626749650624509    0.500145172084402    0.573686758091620  0.0000
  O      O         0.569785034912934    0.000145138644505    0.075023336746720  0.0000
  O      O         0.540611708808328    0.000145381119370    0.145668971748138  0.0000
  O      O         0.850624297270873    0.796096954711001    0.500056794185757  0.0000
  O      O         0.569479117898956    0.946482871909578    0.053719243394557  0.0000
  O      O         0.846070406343296    0.446118353988765    0.554083754781959  0.0000
  O      O         0.710167253504373    0.445911179747625    0.554290935718938  0.0000
  O      O         0.623517835897331    0.445016383543274    0.555185730126411  0.0000
  O      O         0.734594408608625    0.334093964422049    0.666108151082232  0.0000
  O      O         0.335899560545226    0.957812393411033    0.335975952653294  0.0000
  O      O         0.664758603270839    0.179052971151395    0.664835008394923  0.0000
  O      O         0.724448491115778    0.431821399466476    0.724524883494770  0.0000
  O      O         0.612272121066567    0.456538039029121    0.612348516700303  0.0000
  O      O         0.723122351407690    0.277003361359200    0.654238461072648  0.0000
  O      O         0.499980573136778    0.959333709664153    0.128797797177103  0.0000
  Si     Si        0.534526345483171    0.146347626681994    0.416608962216409  0.0000
  Si     Si        0.534904974254998    0.187452723292342    0.361189359371684  0.0000
  Si     Si        0.534899881143812    0.257258124238157    0.360780455773066  0.0000
  Si     Si        0.534660156941028    0.298219216639519    0.416494071433493  0.0000
  Si     Si        0.534513165354894    0.367619141263145    0.416484831485464  0.0000
  Si     Si        0.034536186315772    0.423212602454398    0.916687944924495  0.0000
  Si     Si        0.034936232479968    0.465391524740674    0.862327445082504  0.0000
  Si     Si        0.812917000291909    0.305874113038806    0.354756523041128  0.0000
  Si     Si        0.694843423849985    0.256407182086717    0.423827618453533  0.0000
  Si     Si        0.743626006092537    0.305646782934444    0.354667855930960  0.0000
  Si     Si        0.575693588280718    0.305297684085893    0.186736224139335  0.0000
  Si     Si        0.644640576662427    0.034743781462437    0.306424153914196  0.0000
  Si     Si        0.534789508912834    0.075449002045662    0.194319332650429  0.0000
  Si     Si        0.749206303018264    0.076210758910391    0.645784534743205  0.0000
  O      O         0.545491891821151    0.167594344819680    0.389478703358269  0.0000
  O      O         0.540710815308648    0.222408084933134    0.369264535840032  0.0000
  O      O         0.545440168612276    0.277435505049942    0.388903810752481  0.0000
  O      O         0.539434734383379    0.332952309566979    0.406731969997970  0.0000
  O      O         0.538755640046807    0.888589809000343    0.406275718084903  0.0000
  O      O         0.045907246269026    0.444593356219060    0.889805850642018  0.0000
  O      O         0.819198176132994    0.314279824425250    0.389566971937152  0.0000
  O      O         0.650483570038371    0.295853971313919    0.221753342010697  0.0000
  O      O         0.610756290021356    0.261606758840373    0.315566564873165  0.0000
  O      O         0.703492143295806    0.221677272453521    0.429953470597923  0.0000
  O      O         0.176777143021507    0.667137779934641    0.445071363774837  0.0000
  O      O         0.267056421759296    0.667933257610101    0.445237479668070  0.0000
  O      O         0.666364121071244    0.065863753594103    0.223061977091037  0.0000
  O      O         0.455619665617947    0.054608350918400    0.166527260759568  0.0000
  O      O         0.444217984189693    0.222133558471742    0.065624283402068  0.0000
  O      O         0.844076034504744    0.221895429617371    0.333995782619695  0.0000
  O      O         0.348426998463064    0.259017192219988    0.889023587156261  0.0000
  O      O         0.241808059839954    0.389183141325686    0.929854377539612  0.0000
  O      O         0.184945196648084    0.110089644411746    0.459229656277954  0.0000
  O      O         0.056100313815569    0.655588685852482    0.720711264415832  0.0000
  Si     Si        0.145804851067863    0.250145177783720    0.645881163438129  0.0000
  Si     Si        0.575973756845628    0.750145145361177    0.076050286883868  0.0000
  O      O         0.499980395784646    0.181430303015501    0.647043873677332  0.0000
  O      O         0.499980600668740    0.070175033735532    0.203569937464067  0.0000
  O      O         0.499980369799609    0.153288622114036    0.425342154478518  0.0000
  O      O         0.499980393763375    0.263264026317452    0.352638144577242  0.0000
  O      O         0.499980552885980    0.291528851287000    0.425048892922468  0.0000
  O      O         0.499980392051820    0.373376077226008    0.426427008236691  0.0000
  O      O         0.999980366410224    0.430340674011981    0.925090359072420  0.0000
  O      O         0.999980561846821    0.459514027643332    0.854444816040377  0.0000
  O      O         0.204028765743532    0.149501409232156    0.500056797479908  0.0000
  O      O         0.053642461630299    0.430646510327069    0.946394878268101  0.0000
  O      O         0.554007026688847    0.154055316923321    0.446030326649376  0.0000
  O      O         0.554214794795481    0.289958422612050    0.445822540687957  0.0000
  O      O         0.555109112954104    0.376607944769498    0.444928244759606  0.0000
  O      O         0.666031513521877    0.265531378382218    0.334005814304854  0.0000
  O      O         0.042313355906057    0.664226456610375    0.664138084604271  0.0000
  O      O         0.821072757402690    0.335366860327148    0.335278491963479  0.0000
  O      O         0.568304343810367    0.275676965664968    0.275588563142654  0.0000
  O      O         0.543587639571089    0.387853818827143    0.387765456170504  0.0000
  O      O         0.723122120404514    0.277003588761762    0.345875340080595  0.0000
  O      O         0.040792069566961    0.500145335269715    0.871315967001670  0.0000
  Si     Si        0.853778233931109    0.534691245148895    0.416608798755900  0.0000
  Si     Si        0.812673125532234    0.535069637671467    0.361189190720663  0.0000
  Si     Si        0.742867720705047    0.535064744045113    0.360780612119806  0.0000
  Si     Si        0.701906605118429    0.534824810911407    0.416494206674211  0.0000
  Si     Si        0.632506690316616    0.534678039442495    0.416484705763879  0.0000
  Si     Si        0.576913232543868    0.034701102603509    0.916687773042055  0.0000
  Si     Si        0.534734311052232    0.035100868324701    0.862327263248646  0.0000
  Si     Si        0.694251476518071    0.813081873561534    0.354756632031282  0.0000
  Si     Si        0.743718423535447    0.695008078767241    0.423827527955026  0.0000
  Si     Si        0.694479050328858    0.743790885699142    0.354667749885110  0.0000
  Si     Si        0.694828309096614    0.575858227346816    0.186736378447793  0.0000
  Si     Si        0.965382042614019    0.644805492804200    0.306424031844540  0.0000
  Si     Si        0.924676956618009    0.534954121345166    0.194319593142469  0.0000
  Si     Si        0.923914855495001    0.749370919263490    0.645784644474966  0.0000
  O      O         0.832531707169613    0.545656682082747    0.389478345535381  0.0000
  O      O         0.777717814612123    0.540875579848738    0.369264536455764  0.0000
  O      O         0.722690510503260    0.545604919687437    0.388904131118270  0.0000
  O      O         0.667173567101919    0.539599490201495    0.406731937081204  0.0000
  O      O         0.111536104955653    0.538920406767823    0.406275754619583  0.0000
  O      O         0.555532685020710    0.046072021017303    0.889805455132487  0.0000
  O      O         0.685845885687134    0.819362948545202    0.389567128168409  0.0000
  O      O         0.704271733986519    0.650648271812219    0.221753228054596  0.0000
  O      O         0.738518960659769    0.610921220922037    0.315566574092875  0.0000
  O      O         0.778448284218620    0.703656929260654    0.429953475136296  0.0000
  O      O         0.332987604925401    0.176941916438244    0.445071646779856  0.0000
  O      O         0.332192750331961    0.267221205779246    0.445237223111829  0.0000
  O      O         0.934261987158156    0.666528590280800    0.223061656993257  0.0000
  O      O         0.945517046644193    0.455784395416571    0.166526889890148  0.0000
  O      O         0.777992531918436    0.444382487403528    0.065624318060406  0.0000
  O      O         0.778229999602474    0.844240794758552    0.333995526138413  0.0000
  O      O         0.741108582236173    0.348591790989820    0.889023739114021  0.0000
  O      O         0.610942384452596    0.241972882968900    0.929854390356468  0.0000
  O      O         0.890035873981899    0.185109952918041    0.459229638877062  0.0000
  O      O         0.344537057027829    0.056265335293422    0.720710950238772  0.0000
  Si     Si        0.749980416848706    0.145969525504805    0.645881255050373  0.0000
  Si     Si        0.249980381949582    0.576138645192866    0.076050162559476  0.0000
  O      O         0.818695411523950    0.500145316483354    0.647043865592971  0.0000
  O      O         0.929950769992406    0.500145135281655    0.203569986558674  0.0000
  O      O         0.846837099049164    0.500145333691514    0.425342150179931  0.0000
  O      O         0.736861709671552    0.500145306977362    0.352638157239350  0.0000
  O      O         0.708596860827894    0.500145158389781    0.425048907039011  0.0000
  O      O         0.626749645242053    0.500145313710776    0.426426989240708  0.0000
  O      O         0.569785035812761    0.000145349061252    0.925090373041300  0.0000
  O      O         0.540611686297694    0.000145139625344    0.854444814326512  0.0000
  O      O         0.850624295095755    0.204193526878097    0.500056951250250  0.0000
  O      O         0.569479150268433    0.053807603435228    0.946394512663188  0.0000
  O      O         0.846070405725921    0.554172119613703    0.446029993308396  0.0000
  O      O         0.710167254156724    0.554379299548301    0.445822818477966  0.0000
  O      O         0.623517830261444    0.555274106265024    0.444928010686187  0.0000
  O      O         0.734594403100459    0.666196514791769    0.334005602446586  0.0000
  O      O         0.335899556177819    0.042478086713478    0.664137794026568  0.0000
  O      O         0.664758597848328    0.821237505800175    0.335278740405470  0.0000
  O      O         0.724448474766668    0.568469072763430    0.275588878258079  0.0000
  O      O         0.612272124214429    0.543752447937441    0.387765226081478  0.0000
  O      O         0.723122351339256    0.723287118298315    0.345875292201825  0.0000
  O      O         0.499980565666136    0.040956826315078    0.871315966161696  0.0000
  Si     Si        0.465434600657720    0.853942885773726    0.416608947455265  0.0000
  Si     Si        0.465055971512519    0.812837787889960    0.361189344611708  0.0000
  Si     Si        0.465061059094947    0.743032389498997    0.360780478269320  0.0000
  Si     Si        0.465300787519024    0.702071273921769    0.416494079671671  0.0000
  Si     Si        0.465447771359369    0.632671352188616    0.416484814840650  0.0000
  Si     Si        0.965424762839817    0.577077881292717    0.916687947156656  0.0000
  Si     Si        0.965024713821505    0.534898960788833    0.862327446431151  0.0000
  Si     Si        0.187043937880408    0.694416366103951    0.354756530188374  0.0000
  Si     Si        0.305117514660388    0.743883305428150    0.423827624603027  0.0000
  Si     Si        0.256334932400827    0.694643704559894    0.354667858217276  0.0000
  Si     Si        0.424267369266769    0.694992897736816    0.186736259496911  0.0000
  Si     Si        0.355320354222686    0.965546720944502    0.306424169476479  0.0000
  Si     Si        0.465171451416968    0.924841598643678    0.194319401765093  0.0000
  Si     Si        0.250754643177704    0.924079717208233    0.645784535300791  0.0000
  O      O         0.454469052736225    0.832696187721231    0.389478673542841  0.0000
  O      O         0.459250124268008    0.777882431746752    0.369264547513143  0.0000
  O      O         0.454520779185076    0.722855012614878    0.388903838436197  0.0000
  O      O         0.460526200439970    0.667338186297555    0.406731958261431  0.0000
  O      O         0.461205312667455    0.111700702373432    0.406275732364844  0.0000
  O      O         0.954053699819418    0.555697130293781    0.889805851573108  0.0000
  O      O         0.180762764459575    0.686010658260246    0.389566979792448  0.0000
  O      O         0.349477412511263    0.704436482992504    0.221753379375093  0.0000
  O      O         0.389204645981754    0.738683750117779    0.315566588377561  0.0000
  O      O         0.296468796839950    0.778613214649624    0.429953482862814  0.0000
  O      O         0.823183800026793    0.333152699637038    0.445071357697904  0.0000
  O      O         0.732904521676911    0.332357222897163    0.445237480589457  0.0000
  O      O         0.333596821786763    0.934426749898179    0.223061986921646  0.0000
  O      O         0.544341292795693    0.945682193974211    0.166527278282607  0.0000
  O      O         0.555742902938122    0.778156923234231    0.065624336079407  0.0000
  O      O         0.155884904793735    0.778395047953588    0.333995786542906  0.0000
  O      O         0.651533947082198    0.741273281710596    0.889023603291769  0.0000
  O      O         0.758152880477480    0.611107347761160    0.929854380243893  0.0000
  O      O         0.815015751223640    0.890200833617889    0.459229655958585  0.0000
  O      O         0.943860638325022    0.344701795441041    0.720711266877718  0.0000
  Si     Si        0.854156095624066    0.750145298864261    0.645881159915753  0.0000
  Si     Si        0.423987158590084    0.250145350177511    0.076050249711404  0.0000
  O      O         0.499980550618351    0.818860176065082    0.647043865037268  0.0000
  O      O         0.499980372762472    0.930115532896321    0.203569974780732  0.0000
  O      O         0.499980577471396    0.847001887026328    0.425342132947820  0.0000
  O      O         0.499980544487207    0.737026485752509    0.352638159722392  0.0000
  O      O         0.499980393415585    0.708761623129665    0.425048904638527  0.0000
  O      O         0.499980545443598    0.626914416418478    0.426426989170937  0.0000
  O      O         0.999980582492766    0.569949805781070    0.925090357143827  0.0000
  O      O         0.999980384338947    0.540776458132936    0.854444817121238  0.0000
  O      O         0.795932177983922    0.850789065454339    0.500056792481298  0.0000
  O      O         0.946318490158230    0.569643973389589    0.946394882169932  0.0000
  O      O         0.445953919432602    0.846235176523475    0.446030307620757  0.0000
  O      O         0.445746154300094    0.710332054577176    0.445822555144767  0.0000
  O      O         0.444851827336383    0.623682544125062    0.444928229714972  0.0000
  O      O         0.333929420409173    0.734759122068997    0.334005822509187  0.0000
  O      O         0.957647590732603    0.336064020750114    0.664138086761384  0.0000
  O      O         0.178888180857846    0.664923614225849    0.335278506342250  0.0000
  O      O         0.431656599413248    0.724613503212958    0.275588608182716  0.0000
  O      O         0.456373295621197    0.612436678869166    0.387765435784269  0.0000
  O      O         0.276838813410271    0.723286902033616    0.345875340911415  0.0000
  O      O         0.959168877298139    0.500145150150633    0.871315968574654  0.0000
  Si     Si        0.146182708502120    0.465599228476446    0.416608802117116  0.0000
  Si     Si        0.187287816069218    0.465220835471335    0.361189194031177  0.0000
  Si     Si        0.257093221476508    0.465225732646834    0.360780616688336  0.0000
  Si     Si        0.298054333870693    0.465465670125783    0.416494214181413  0.0000
  Si     Si        0.367454248365855    0.465612445746391    0.416484714602034  0.0000
  Si     Si        0.423047711595724    0.965589365919660    0.916687776981893  0.0000
  Si     Si        0.465226631356816    0.965189593363608    0.862327267784379  0.0000
  Si     Si        0.305709467687119    0.187208606837363    0.354756634123146  0.0000
  Si     Si        0.256242528774236    0.305282405393241    0.423827526949537  0.0000
  Si     Si        0.305481899346325    0.256499596592647    0.354667747788416  0.0000
  Si     Si        0.305132626921432    0.424432261467707    0.186736380560018  0.0000
  Si     Si        0.034578897136754    0.355484982122568    0.306424026764090  0.0000
  Si     Si        0.075283986698772    0.465336353506171    0.194319592005114  0.0000
  Si     Si        0.076046091248258    0.250919557938700    0.645784648323452  0.0000
  O      O         0.167429235937144    0.454633791006881    0.389478349650461  0.0000
  O      O         0.222243127478677    0.459414894690294    0.369264538760952  0.0000
  O      O         0.277270430486987    0.454685559405744    0.388904137529158  0.0000
  O      O         0.332787372181705    0.460690990269477    0.406731947595041  0.0000
  O      O         0.888424836406857    0.461370065297945    0.406275750897641  0.0000
  O      O         0.444428255873565    0.954218440861845    0.889805459295743  0.0000
  O      O         0.314115058372178    0.180927528193023    0.389567130025141  0.0000
  O      O         0.295689197781239    0.349642210358776    0.221753223694626  0.0000
  O      O         0.261441981923244    0.389369256020627    0.315566575198679  0.0000
  O      O         0.221512668984833    0.296633554407510    0.429953475155090  0.0000
  O      O         0.666973335243476    0.823348564168684    0.445071641435722  0.0000
  O      O         0.667768202570227    0.733069275040540    0.445237224616690  0.0000
  O      O         0.065698957245951    0.333761889472082    0.223061651059782  0.0000
  O      O         0.054443895006195    0.544506081779366    0.166526893910429  0.0000
  O      O         0.221968408285388    0.555908001429117    0.065624331686942  0.0000
  O      O         0.221730936697952    0.156049696799636    0.333995530651877  0.0000
  O      O         0.258852387782283    0.651698707174432    0.889023744543151  0.0000
  O      O         0.389018550785085    0.758317620426892    0.929854386595517  0.0000
  O      O         0.109925068189575    0.815180529526717    0.459229636299287  0.0000
  O      O         0.655423890551443    0.944025138363091    0.720710953393160  0.0000
  Si     Si        0.249980528057536    0.854320950413675    0.645881251139823  0.0000
  Si     Si        0.749980555915184    0.424151844880311    0.076050146516352  0.0000
  O      O         0.181265532640484    0.500145165495126    0.647043868201862  0.0000
  O      O         0.070010169191465    0.500145338478760    0.203569986729218  0.0000
  O      O         0.153123843380385    0.500145139947516    0.425342154257682  0.0000
  O      O         0.263099231803976    0.500145170236549    0.352638162649209  0.0000
  O      O         0.291364079752392    0.500145323036511    0.425048913374002  0.0000
  O      O         0.373211294264829    0.500145172018269    0.426426994482656  0.0000
  O      O         0.430175907849824    0.000145122624686    0.925090359652501  0.0000
  O      O         0.459349255794447    0.000145321534649    0.854444814087287  0.0000
  O      O         0.149336647438850    0.796096955824580    0.500056948697167  0.0000
  O      O         0.430481803526328    0.946482882838181    0.946394524816561  0.0000
  O      O         0.153890536790464    0.446118354069241    0.446029996542073  0.0000
  O      O         0.289793682788584    0.445911183265215    0.445822826437522  0.0000
  O      O         0.376443110517783    0.445016382817402    0.444928022321992  0.0000
  O      O         0.265366542277844    0.334093962649016    0.334005600137709  0.0000
  O      O         0.664061391547507    0.957812386206192    0.664137795833832  0.0000
  O      O         0.335202343896731    0.179052970470360    0.335278740525133  0.0000
  O      O         0.275512466467239    0.431821404696995    0.275588881686917  0.0000
  O      O         0.387688809685062    0.456538040124499    0.387765230829132  0.0000
  O      O         0.276838594935509    0.277003360644671    0.345875293912462  0.0000
  O      O         0.499980376659743    0.959333637250317    0.871315972804902  0.0000
  Si     Si        0.583428396634598    0.534691127730342    0.853854492498144  0.0000
  Si     Si        0.638848009001317    0.535069746502306    0.812749410241555  0.0000
  Si     Si        0.639256883265635    0.535064656922867    0.742944008946549  0.0000
  Si     Si        0.583543273696802    0.534824928352683    0.701982907254232  0.0000
  Si     Si        0.583552533962564    0.534677941976962    0.632582984130349  0.0000
  Si     Si        0.083349401998875    0.034700952328140    0.576989509753751  0.0000
  Si     Si        0.137709904592154    0.035100996967935    0.534810589140553  0.0000
  Si     Si        0.645280823188584    0.813081775954372    0.694327999053879  0.0000
  Si     Si        0.576209727213834    0.695008201014662    0.743794934960269  0.0000
  Si     Si        0.645369495414608    0.743790781332171    0.694555335437861  0.0000
  Si     Si        0.813301096886864    0.575858342327831    0.694904534197541  0.0000
  Si     Si        0.693613175901662    0.644805359030026    0.965458351862424  0.0000
  Si     Si        0.805717960043767    0.534954272371530    0.924753223097539  0.0000
  Si     Si        0.354252811410089    0.749371072325488    0.923991354114002  0.0000
  O      O         0.610558670089045    0.545656671339583    0.832607791457717  0.0000
  O      O         0.630772818702931    0.540875586074558    0.777794051793881  0.0000
  O      O         0.611133520014918    0.545604939988791    0.722766637820302  0.0000
  O      O         0.593305388059244    0.539599511364034    0.667249818171051  0.0000
  O      O         0.593761627010622    0.538920423328025    0.111612299729190  0.0000
  O      O         0.110231498487104    0.046072010094528    0.555608757470958  0.0000
  O      O         0.610470373876539    0.819362950525261    0.685922289721894  0.0000
  O      O         0.778283980337194    0.650648301245450    0.704348117011723  0.0000
  O      O         0.684470768309994    0.610921072438854    0.738595384622986  0.0000
  O      O         0.570083869090469    0.703656921756154    0.778524843268189  0.0000
  O      O         0.554965994761082    0.176941930073020    0.333064363617769  0.0000
  O      O         0.554799851350707    0.267221214734099    0.332268827482328  0.0000
  O      O         0.776975360432228    0.666528906389920    0.934338384134812  0.0000
  O      O         0.833510090990647    0.455784422690492    0.945593784051795  0.0000
  O      O         0.934413021859653    0.444382805604377    0.778068569989520  0.0000
  O      O         0.666041562646555    0.844240803161938    0.778306683573044  0.0000
  O      O         0.111013742313548    0.348591772200033    0.741184924282682  0.0000
  O      O         0.070182958758348    0.241972835955110    0.611018971695457  0.0000
  O      O         0.540807692839015    0.185109998130578    0.890112459557255  0.0000
  O      O         0.279326077609401    0.056265081709570    0.344613428619632  0.0000
  Si     Si        0.354156183487534    0.145969615461320    0.750056932555629  0.0000
  Si     Si        0.923987067452340    0.576138521623849    0.250056968414642  0.0000
  O      O         0.352993473491398    0.500145170675358    0.818771805665007  0.0000
  O      O         0.796467386880389    0.500145351855083    0.930027162888885  0.0000
  O      O         0.574695203061810    0.500145153188814    0.846913491708306  0.0000
  O      O         0.647399201503216    0.500145172799799    0.736938096143558  0.0000
  O      O         0.574988453492521    0.500145322225474    0.708673261381980  0.0000
  O      O         0.573610358218645    0.500145168889755    0.626826044255189  0.0000
  O      O         0.074946985809650    0.000145133012664    0.569861437039869  0.0000
  O      O         0.145592534555552    0.000145326525918    0.540688086113460  0.0000
  O      O         0.499980548856898    0.204193537380720    0.850700684373433  0.0000
  O      O         0.053642472382349    0.053807233666047    0.569555599968113  0.0000
  O      O         0.554007035025322    0.554171809228797    0.846146791336804  0.0000
  O      O         0.554214799489531    0.554379562561969    0.710243692030128  0.0000
  O      O         0.555109120521088    0.555273887658878    0.623594175061468  0.0000
  O      O         0.666031533112119    0.666196296699858    0.734670753914003  0.0000
  O      O         0.335899252768685    0.042478134251184    0.335975635041186  0.0000
  O      O         0.664758848369688    0.821237534572464    0.664835248809279  0.0000
  O      O         0.724448752199102    0.568469120907519    0.724525141689776  0.0000
  O      O         0.612271916352640    0.543752417645506    0.612348315664127  0.0000
  O      O         0.654162009118733    0.723286901402571    0.723198534295406  0.0000
  O      O         0.128721384922001    0.040956834581411    0.500056778251840  0.0000
  Si     Si        0.583428387608855    0.465599392517021    0.146259218179404  0.0000
  Si     Si        0.638847977754698    0.465220724078309    0.187364325045787  0.0000
  Si     Si        0.639256861028064    0.465225818638039    0.257169723095443  0.0000
  Si     Si        0.583543264370769    0.465465547952104    0.298130847256936  0.0000
  Si     Si        0.583552531986733    0.465612541518264    0.367530769476933  0.0000
  Si     Si        0.083349401026261    0.965589527298999    0.423124234418047  0.0000
  Si     Si        0.137709905213180    0.965189480447373    0.465303152483976  0.0000
  Si     Si        0.645280814620620    0.187208719243848    0.305785742959802  0.0000
  Si     Si        0.576209714184321    0.305282272215322    0.256318760260608  0.0000
  Si     Si        0.645369481688704    0.256499717569121    0.305558404071090  0.0000
  Si     Si        0.813301082793957    0.424432137497222    0.305209207114475  0.0000
  Si     Si        0.693613180109353    0.355485121378364    0.034655377699353  0.0000
  Si     Si        0.805717939762539    0.465336222661464    0.075360516809617  0.0000
  Si     Si        0.354252772303347    0.250919435544538    0.076122371316826  0.0000
  O      O         0.610558637693572    0.454633813670041    0.167505932064121  0.0000
  O      O         0.630772779636024    0.459414885189814    0.222319683237921  0.0000
  O      O         0.611133507057495    0.454685540808727    0.277347110141529  0.0000
  O      O         0.593305381114904    0.460690958181062    0.332863935459527  0.0000
  O      O         0.593761618186472    0.461370097560224    0.888501409844341  0.0000
  O      O         0.110231500166370    0.954218468128062    0.444504982499841  0.0000
  O      O         0.610470368928953    0.180927544065266    0.314191465353844  0.0000
  O      O         0.778283962965324    0.349642179371722    0.295765625144028  0.0000
  O      O         0.684470759552986    0.389369407777184    0.261518355986674  0.0000
  O      O         0.570083839611172    0.296633564585263    0.221588846001348  0.0000
  O      O         0.554965990260338    0.823348570573085    0.667049408278406  0.0000
  O      O         0.554799873136413    0.733069291330955    0.667844888582249  0.0000
  O      O         0.776975359657349    0.333761590865432    0.065775357392751  0.0000
  O      O         0.833510085398181    0.544506063393720    0.054519946707250  0.0000
  O      O         0.934413018245353    0.555907667319373    0.222045190360724  0.0000
  O      O         0.666041514976203    0.156049697693483    0.221807037808688  0.0000
  O      O         0.111013743713318    0.651698709186119    0.258928831982313  0.0000
  O      O         0.070182960631100    0.758317637043135    0.389094778171956  0.0000
  O      O         0.540807687306919    0.815180520837628    0.110001278440418  0.0000
  O      O         0.279326081500594    0.944025397412826    0.655500315114233  0.0000
  Si     Si        0.354156191276167    0.854320861022394    0.250056816915144  0.0000
  Si     Si        0.923987076026592    0.424151953511046    0.750056788275139  0.0000
  O      O         0.352993475098062    0.500145332225041    0.181341947523085  0.0000
  O      O         0.796467373677491    0.500145146062961    0.070086581759119  0.0000
  O      O         0.574695228893067    0.500145369946907    0.153200229566167  0.0000
  O      O         0.647399186047819    0.500145303014095    0.263175625191016  0.0000
  O      O         0.574988440609575    0.500145154388133    0.291440499426708  0.0000
  O      O         0.573610365317498    0.500145317462127    0.373287699164520  0.0000
  O      O         0.074946987325080    0.000145347036987    0.430252308564177  0.0000
  O      O         0.145592537655085    0.000145150453381    0.459425655840468  0.0000
  O      O         0.499980556594134    0.796096950007459    0.149413053692471  0.0000
  O      O         0.053642472142767    0.946483245903037    0.430558147503708  0.0000
  O      O         0.554006987902518    0.446118758752255    0.153966888245190  0.0000
  O      O         0.554214790664100    0.445910911761588    0.289870064084349  0.0000
  O      O         0.555109110779935    0.445016612327865    0.376519592520303  0.0000
  O      O         0.666031512355754    0.334094185977131    0.265442961196776  0.0000
  O      O         0.335899259318961    0.957812354177689    0.664138091289403  0.0000
  O      O         0.664758849518337    0.179052947433398    0.335278483006435  0.0000
  O      O         0.724448734062257    0.431821367743762    0.275588599979859  0.0000
  O      O         0.612271913685244    0.456538063001089    0.387765437630493  0.0000
  O      O         0.654162005564960    0.277003584726124    0.276915199774645  0.0000
  O      O         0.128721381404257    0.959333643984993    0.500056962370351  0.0000
  Si     Si        0.534526487846154    0.583593328008498    0.146259102559359  0.0000
  Si     Si        0.534904869439969    0.639012931656939    0.187364220057003  0.0000
  Si     Si        0.534899978666898    0.639421500132037    0.257169623738787  0.0000
  Si     Si        0.534660042824704    0.583707907633637    0.298130743212222  0.0000
  Si     Si        0.534513268006433    0.583717408967116    0.367530655532450  0.0000
  Si     Si        0.034536331648514    0.083514330915923    0.423124114741042  0.0000
  Si     Si        0.034936108931215    0.137874844291261    0.465303033618688  0.0000
  Si     Si        0.812917104227257    0.645445477391518    0.305785869595189  0.0000
  Si     Si        0.694843305180716    0.576374583066628    0.256318934363124  0.0000
  Si     Si        0.743626114989826    0.645534362421554    0.305558301811691  0.0000
  Si     Si        0.575693466787710    0.813465737859566    0.305209041095873  0.0000
  Si     Si        0.644640726219751    0.693778084007976    0.034655303968090  0.0000
  Si     Si        0.534789356481856    0.805882521550354    0.075360392566453  0.0000
  Si     Si        0.749206144531018    0.354417473395520    0.076122487327453  0.0000
  O      O         0.545491915975509    0.610723785419227    0.167505628316228  0.0000
  O      O         0.540710817410474    0.630937579619254    0.222319529152810  0.0000
  O      O         0.545440153445306    0.611297979485211    0.277346832806474  0.0000
  O      O         0.539434719759963    0.593470182526104    0.332863780153988  0.0000
  O      O         0.538755641481179    0.593926370403157    0.888501228584405  0.0000
  O      O         0.045907254225754    0.110396647214080    0.444504661992331  0.0000
  O      O         0.819198180719021    0.610634980942473    0.314191459981157  0.0000
  O      O         0.650483514541777    0.778448887021427    0.295765604161065  0.0000
  O      O         0.610756454581957    0.684635539616532    0.261518390468450  0.0000
  O      O         0.703492164455627    0.570248640363527    0.221589076495224  0.0000
  O      O         0.176777144639227    0.555130474601656    0.667049735828317  0.0000
  O      O         0.267056435974273    0.554964891005550    0.667844603543367  0.0000
  O      O         0.666363822674904    0.777140459683615    0.065775359494221  0.0000
  O      O         0.455619629219478    0.833675227106859    0.054520306683036  0.0000
  O      O         0.444217713171474    0.934577788695699    0.222044810092697  0.0000
  O      O         0.844076016836334    0.666206582884745    0.221807341631528  0.0000
  O      O         0.348427029719475    0.111178371964669    0.258928782973026  0.0000
  O      O         0.241808094666739    0.070347729228096    0.389094951616513  0.0000
  O      O         0.184945186599428    0.540972475897920    0.110001474066345  0.0000
  O      O         0.056100569682889    0.279491154153362    0.655500289865840  0.0000
  Si     Si        0.145804760170568    0.354320858615286    0.250056934582374  0.0000
  Si     Si        0.575973880164259    0.924151956484502    0.750056967993789  0.0000
  O      O         0.499980561378733    0.353158287020683    0.181341946106023  0.0000
  O      O         0.499980370962511    0.796632127831636    0.070086576645959  0.0000
  O      O         0.499980580211149    0.574859958899638    0.153200240109522  0.0000
  O      O         0.499980540524426    0.647563951449617    0.263175632999359  0.0000
  O      O         0.499980390337792    0.575153206575616    0.291440489445685  0.0000
  O      O         0.499980543083875    0.573775122797818    0.373287701237131  0.0000
  O      O         0.999980575287325    0.075111739226782    0.430252307954259  0.0000
  O      O         0.999980382037230    0.145757303835675    0.459425656363566  0.0000
  O      O         0.204028755849483    0.500145157583196    0.149413049869181  0.0000
  O      O         0.053642823123304    0.053807586717783    0.430558202577298  0.0000
  O      O         0.554007382609868    0.554172147397286    0.153966930749940  0.0000
  O      O         0.554214528739941    0.554379292654648    0.289870099409794  0.0000
  O      O         0.555109335803679    0.555274103207018    0.376519510503365  0.0000
  O      O         0.666031747036732    0.666196510117836    0.265442945271199  0.0000
  O      O         0.042313327033580    0.336064312701807    0.664137792352508  0.0000
  O      O         0.821072743581710    0.664923371114958    0.335278744830377  0.0000
  O      O         0.568304308771232    0.724613237029823    0.275588875604561  0.0000
  O      O         0.543587672742051    0.612436888199769    0.387765223952946  0.0000
  O      O         0.723122349358143    0.654326819216547    0.276914999122074  0.0000
  O      O         0.040792062665496    0.128886141648168    0.500056779607255  0.0000
  Si     Si        0.416532549418790    0.534691115549476    0.146259232852062  0.0000
  Si     Si        0.361112946576093    0.535069756603296    0.187364330396900  0.0000
  Si     Si        0.360704075087475    0.535064659813427    0.257169727741615  0.0000
  Si     Si        0.416417675008754    0.534824924747330    0.298130844661525  0.0000
  Si     Si        0.416408406403417    0.534677942200162    0.367530765059395  0.0000
  Si     Si        0.916611537813370    0.034700957486751    0.423124232092605  0.0000
  Si     Si        0.862251036002807    0.035101000655056    0.465303152946722  0.0000
  Si     Si        0.354680128500409    0.813081774624011    0.305785747672253  0.0000
  Si     Si        0.423751222456175    0.695008195549347    0.256318813693287  0.0000
  Si     Si        0.354591456416217    0.743790780226941    0.305558415703728  0.0000
  Si     Si        0.186659855442772    0.575858338996869    0.305209214010062  0.0000
  Si     Si        0.306347762375938    0.644805368417412    0.034655400600068  0.0000
  Si     Si        0.194243001089468    0.534954262040196    0.075360522789715  0.0000
  Si     Si        0.645708135522226    0.749371065572803    0.076122400022421  0.0000
  O      O         0.389402279644085    0.545656670994125    0.167505932889460  0.0000
  O      O         0.369188146855759    0.540875600610169    0.222319687437183  0.0000
  O      O         0.388827435298972    0.545604935987837    0.277347106210077  0.0000
  O      O         0.406655552071980    0.539599514289745    0.332863931033881  0.0000
  O      O         0.406199326042354    0.538920410878392    0.888501416505693  0.0000
  O      O         0.889729440770767    0.046072014872913    0.444504983806483  0.0000
  O      O         0.389490578025619    0.819362948497465    0.314191456497637  0.0000
  O      O         0.221676970980353    0.650648296520304    0.295765636664173  0.0000
  O      O         0.315490181657472    0.610921071301390    0.261518366587522  0.0000
  O      O         0.429877079882306    0.703656912738924    0.221588904306949  0.0000
  O      O         0.444994953914338    0.176941908761544    0.667049410566391  0.0000
  O      O         0.445161077882089    0.267221185462596    0.667844893283708  0.0000
  O      O         0.222985576780529    0.666528894234425    0.065775373223381  0.0000
  O      O         0.166450855436542    0.455784421706994    0.054519952558217  0.0000
  O      O         0.065547925176834    0.444382805983953    0.222045187957359  0.0000
  O      O         0.333919391081479    0.844240810562589    0.221807063804171  0.0000
  O      O         0.888947193078875    0.348591764700063    0.258928823871623  0.0000
  O      O         0.929777980222001    0.241972838607222    0.389094772566247  0.0000
  O      O         0.459153155199098    0.185109935073380    0.110001207607797  0.0000
  O      O         0.720634867241894    0.056265076745633    0.655500317966828  0.0000
  Si     Si        0.645804732731027    0.145969644275758    0.250056803090964  0.0000
  Si     Si        0.075973873280158    0.576138527524478    0.750056785970436  0.0000
  O      O         0.646967449443149    0.500145148985652    0.181341935734879  0.0000
  O      O         0.203493570162921    0.500145340389002    0.070086580348937  0.0000
  O      O         0.425265723972117    0.500145136728495    0.153200235096694  0.0000
  O      O         0.352561754605813    0.500145174319574    0.263175628832505  0.0000
  O      O         0.424972498677487    0.500145318228190    0.291440497202383  0.0000
  O      O         0.426350575928792    0.500145166946068    0.373287700490310  0.0000
  O      O         0.925013954098847    0.000145138346494    0.430252305259721  0.0000
  O      O         0.854368404352592    0.000145330479589    0.459425655216948  0.0000
  O      O         0.499980263275105    0.204193491698993    0.149412987715447  0.0000
  O      O         0.946318467828938    0.053807237500363    0.430558143057286  0.0000
  O      O         0.445953917194374    0.554171789127373    0.153966935312314  0.0000
  O      O         0.445746151544585    0.554379555960303    0.289870063536799  0.0000
  O      O         0.444851823498038    0.555273883913626    0.376519573475086  0.0000
  O      O         0.333929417130145    0.666196294328109    0.265442999427361  0.0000
  O      O         0.664061687898927    0.042478118762822    0.664138091464546  0.0000
  O      O         0.335202101851194    0.821237534240004    0.335278496954699  0.0000
  O      O         0.275512204940406    0.568469114845814    0.275588613357141  0.0000
  O      O         0.387689026543235    0.543752419433559    0.387765436710350  0.0000
  O      O         0.345798940690982    0.723286898851550    0.276915218765024  0.0000
  O      O         0.871239560293370    0.040956834638536    0.500056963348899  0.0000
  Si     Si        0.465434431933869    0.416697162559472    0.146259089530092  0.0000
  Si     Si        0.465056074147928    0.361277563743323    0.187364221872360  0.0000
  Si     Si        0.465060961000319    0.360868974179335    0.257169627462965  0.0000
  Si     Si        0.465300896851193    0.416582564745506    0.298130751578467  0.0000
  Si     Si        0.465447666872911    0.416573074979243    0.367530666895537  0.0000
  Si     Si        0.965424608711792    0.916776152954342    0.423124116169880  0.0000
  Si     Si        0.965024832609620    0.862415638223152    0.465303033190636  0.0000
  Si     Si        0.187043839957312    0.354844998288774    0.305785869553768  0.0000
  Si     Si        0.305117634673318    0.423915896606532    0.256318935241197  0.0000
  Si     Si        0.256334828905603    0.354756115042229    0.305558300570060  0.0000
  Si     Si        0.424267479266094    0.186824741552540    0.305209050879830  0.0000
  Si     Si        0.355320208506694    0.306512410050891    0.034655274627355  0.0000
  Si     Si        0.465171530018834    0.194407956999384    0.075360332859541  0.0000
  Si     Si        0.250754794724339    0.645873015397399    0.076122501556660  0.0000
  O      O         0.454469020091692    0.389566709087869    0.167505631945253  0.0000
  O      O         0.459250126471410    0.369352906423697    0.222319533467290  0.0000
  O      O         0.454520785293248    0.388992489255997    0.277346845709199  0.0000
  O      O         0.460526224588097    0.406820297961143    0.332863791094236  0.0000
  O      O         0.461205295070987    0.406364135551540    0.888501217194946  0.0000
  O      O         0.954053686113850    0.889893837086435    0.444504664251718  0.0000
  O      O         0.180762762846306    0.389655494504116    0.314191459508949  0.0000
  O      O         0.349477425779048    0.221841589423508    0.295765602652882  0.0000
  O      O         0.389204486693933    0.315654931477790    0.261518374863648  0.0000
  O      O         0.296468773935332    0.430041848850812    0.221589079309253  0.0000
  O      O         0.823183802268824    0.445160010486414    0.667049737138355  0.0000
  O      O         0.732904510631377    0.445325591835434    0.667844604533404  0.0000
  O      O         0.333597098356244    0.223150028950947    0.065775335725406  0.0000
  O      O         0.544341271929053    0.166615285911244    0.054520225632577  0.0000
  O      O         0.555743265396391    0.065712797080052    0.222044719086188  0.0000
  O      O         0.155884927776312    0.334083894428830    0.221807341971004  0.0000
  O      O         0.651533934194584    0.889112114441526    0.258928799658344  0.0000
  O      O         0.758152847805327    0.929942755428399    0.389094945147708  0.0000
  O      O         0.815015750412226    0.459318001639634    0.110001468195893  0.0000
  O      O         0.943860377186592    0.720799323383462    0.655500286331508  0.0000
  Si     Si        0.854156182831125    0.645969616847859    0.250056933569150  0.0000
  Si     Si        0.423987065772650    0.076138518085856    0.750056963258823  0.0000
  O      O         0.499980388763811    0.647132235095351    0.181341944751461  0.0000
  O      O         0.499980516162763    0.203658369916070    0.070086539393672  0.0000
  O      O         0.499980336229323    0.425430560237178    0.153200200601129  0.0000
  O      O         0.499980396546016    0.352726515212920    0.263175645836396  0.0000
  O      O         0.499980549665880    0.425137263076310    0.291440492649249  0.0000
  O      O         0.499980387488687    0.426515372102729    0.373287721362221  0.0000
  O      O         0.999980365224223    0.925178742460469    0.430252310436562  0.0000
  O      O         0.999980559171947    0.854533178356484    0.459425653834039  0.0000
  O      O         0.795932195266756    0.500145330905950    0.149413040768663  0.0000
  O      O         0.946318119852438    0.946482899297509    0.430558201698944  0.0000
  O      O         0.445953544016329    0.446118344480185    0.153966922680344  0.0000
  O      O         0.445746409415828    0.445911178380739    0.289870106435213  0.0000
  O      O         0.444851590147795    0.445016373699340    0.376519521308371  0.0000
  O      O         0.333929194639271    0.334093965318187    0.265442931001869  0.0000
  O      O         0.957647620677959    0.664226166163807    0.664137795007189  0.0000
  O      O         0.178888203100580    0.335367105869276    0.335278746119844  0.0000
  O      O         0.431656631877716    0.275677232272601    0.275588857968788  0.0000
  O      O         0.456373267219772    0.387853593733355    0.387765233495280  0.0000
  O      O         0.276838595117844    0.345963658816069    0.276914998359755  0.0000
  O      O         0.959168881131783    0.871404337887258    0.500056780302116  0.0000
  Si     Si        0.416532544761984    0.465599374164814    0.853854492531038  0.0000
  Si     Si        0.361112932588091    0.465220744427765    0.812749412341884  0.0000
  Si     Si        0.360704063751910    0.465225829812787    0.742944011103097  0.0000
  Si     Si        0.416417675161234    0.465465555809596    0.701982911206642  0.0000
  Si     Si        0.416408412598759    0.465612539750555    0.632582988000853  0.0000
  Si     Si        0.916611541894978    0.965589524517005    0.576989509645098  0.0000
  Si     Si        0.862251040234077    0.965189480569324    0.534810587993976  0.0000
  Si     Si        0.354680122686693    0.187208703577325    0.694328003581949  0.0000
  Si     Si        0.423751220922326    0.305282284203004    0.743794932785583  0.0000
  Si     Si        0.354591453117678    0.256499697430787    0.694555336715022  0.0000
  Si     Si        0.186659849619213    0.424432137580987    0.694904536689248  0.0000
  Si     Si        0.306347766628329    0.355485134036162    0.965458336648799  0.0000
  Si     Si        0.194242990473232    0.465336223102191    0.924753224109850  0.0000
  Si     Si        0.645708127217174    0.250919405178375    0.923991333061492  0.0000
  O      O         0.389402271338641    0.454633823715593    0.832607795911302  0.0000
  O      O         0.369188124482023    0.459414901472241    0.777794054900319  0.0000
  O      O         0.388827429178839    0.454685546200462    0.722766643275946  0.0000
  O      O         0.406655559817353    0.460690970980505    0.667249822540882  0.0000
  O      O         0.406199303926813    0.461370088856990    0.111612302491431  0.0000
  O      O         0.889729445073408    0.954218466890143    0.555608757595957  0.0000
  O      O         0.389490571906269    0.180927529999548    0.685922293520949  0.0000
  O      O         0.221676967314480    0.349642180548544    0.704348116365217  0.0000
  O      O         0.315490182580628    0.389369412167556    0.738595379915276  0.0000
  O      O         0.429877076144365    0.296633570293554    0.778524842760565  0.0000
  O      O         0.444994960709385    0.823348568421511    0.333064335857794  0.0000
  O      O         0.445161080403425    0.733069292686214    0.332268860114252  0.0000
  O      O         0.222985584308566    0.333761578831174    0.934338378003194  0.0000
  O      O         0.166450855613930    0.544506064933945    0.945593789011955  0.0000
  O      O         0.065547926401958    0.555907677191606    0.778068568198120  0.0000
  O      O         0.333919383934079    0.156049666139144    0.778306686059673  0.0000
  O      O         0.888947206314377    0.651698711283082    0.741184925118167  0.0000
  O      O         0.929777987604262    0.758317641769217    0.611018967843713  0.0000
  O      O         0.459153260462088    0.815180521183781    0.890112468346116  0.0000
  O      O         0.720634864784675    0.944025419049457    0.344613424852778  0.0000
  Si     Si        0.645804763186501    0.854320858319916    0.750056931564915  0.0000
  Si     Si        0.075973876459653    0.424151954663009    0.250056967938978  0.0000
  O      O         0.646967469342257    0.500145320662259    0.818771804826354  0.0000
  O      O         0.203493567107416    0.500145143216329    0.930027166198832  0.0000
  O      O         0.425265736652058    0.500145348957845    0.846913491988262  0.0000
  O      O         0.352561746326708    0.500145314105919    0.736938098639544  0.0000
  O      O         0.424972497422647    0.500145161765206    0.708673264635332  0.0000
  O      O         0.426350589536582    0.500145312459507    0.626826048961629  0.0000
  O      O         0.925013956675757    0.000145344141850    0.569861435945710  0.0000
  O      O         0.854368407230933    0.000145150153946    0.540688086368674  0.0000
  O      O         0.499980396441082    0.796096945250276    0.850700700498532  0.0000
  O      O         0.946318471113984    0.946483242077940    0.569555600839826  0.0000
  O      O         0.445953904519702    0.446118692066920    0.846146784583164  0.0000
  O      O         0.445746149152706    0.445910921113087    0.710243695172384  0.0000
  O      O         0.444851824897091    0.445016593226911    0.623594176671462  0.0000
  O      O         0.333929415395246    0.334094187975851    0.734670747036044  0.0000
  O      O         0.664061684073370    0.957812376377527    0.335975645714225  0.0000
  O      O         0.335202097106097    0.179052945079355    0.664835253427456  0.0000
  O      O         0.275512195640446    0.431821360887510    0.724525140996398  0.0000
  O      O         0.387689028641611    0.456538066334116    0.612348320728170  0.0000
  O      O         0.345798939650492    0.277003581764302    0.723198532428780  0.0000
  O      O         0.871239563309238    0.959333647165916    0.500056777197214  0.0000
  Si     Si        0.534526477042631    0.416697177937070    0.853854624511059  0.0000
  Si     Si        0.534904874718081    0.361277558188837    0.812749529591759  0.0000
  Si     Si        0.534899981588054    0.360868979671088    0.742944122674182  0.0000
  Si     Si        0.534660045955794    0.416582574485500    0.701983005364169  0.0000
  Si     Si        0.534513270432608    0.416573070231213    0.632583091311277  0.0000
  Si     Si        0.034536333082418    0.916776146725717    0.576989629282515  0.0000
  Si     Si        0.034936110475710    0.862415635576407    0.534810709446640  0.0000
  Si     Si        0.812917112723510    0.354844999326179    0.694327878230790  0.0000
  Si     Si        0.694843316493242    0.423915893761513    0.743794821071108  0.0000
  Si     Si        0.743626123779743    0.354756116333489    0.694555450769062  0.0000
  Si     Si        0.575693469651757    0.186824739541611    0.694904706954879  0.0000
  Si     Si        0.644640741569179    0.306512411259182    0.965458377458329  0.0000
  Si     Si        0.534789350388091    0.194407982072562    0.924753347301444  0.0000
  Si     Si        0.749206147361189    0.645873022298272    0.923991253510775  0.0000
  O      O         0.545491917988581    0.389566712749668    0.832608113852621  0.0000
  O      O         0.540710813940559    0.369352901898141    0.777794217621828  0.0000
  O      O         0.545440154750771    0.388992501781823    0.722766915020862  0.0000
  O      O         0.539434723349215    0.406820301404309    0.667249967866644  0.0000
  O      O         0.538755638264002    0.406364119122423    0.111612508598736  0.0000
  O      O         0.045907257356005    0.889893834051978    0.555609078443271  0.0000
  O      O         0.819198188877140    0.389655495550055    0.685922286773236  0.0000
  O      O         0.650483518947472    0.221841590341499    0.704348144765898  0.0000
  O      O         0.610756461371122    0.315654942817711    0.738595351768103  0.0000
  O      O         0.703492162986049    0.430041844654773    0.778524681233657  0.0000
  O      O         0.176777145190374    0.445160007351387    0.333064013117873  0.0000
  O      O         0.267056438507093    0.445325586863193    0.332269159378028  0.0000
  O      O         0.666363803949756    0.223150005585140    0.934338378714616  0.0000
  O      O         0.455619618167733    0.166615241115894    0.945593416671193  0.0000
  O      O         0.444217708384414    0.065712688169795    0.778068937772151  0.0000
  O      O         0.844076023620117    0.334083891845928    0.778306403902068  0.0000
  O      O         0.348427010089135    0.889112107238908    0.741184960292637  0.0000
  O      O         0.241808090991153    0.929942752694797    0.611018797937986  0.0000
  O      O         0.184945176215789    0.459318009994762    0.890112273063197  0.0000
  O      O         0.056100569344421    0.720799320915539    0.344613459042666  0.0000
  Si     Si        0.145804759480163    0.645969621659583    0.750056818945722  0.0000
  Si     Si        0.575973870753565    0.076138549478499    0.250056751433528  0.0000
  O      O         0.499980547607879    0.647132238895729    0.818771806553400  0.0000
  O      O         0.499980360183041    0.203658353158415    0.930027165411019  0.0000
  O      O         0.499980567644882    0.425430527746886    0.846913475920243  0.0000
  O      O         0.499980545423891    0.352726522061326    0.736938107930604  0.0000
  O      O         0.499980393591386    0.425137277896932    0.708673259976440  0.0000
  O      O         0.499980544683425    0.426515355516084    0.626826048423300  0.0000
  O      O         0.999980576274482    0.925178736410983    0.569861437336668  0.0000
  O      O         0.999980383742624    0.854533177053410    0.540688088795775  0.0000
  O      O         0.204028756926820    0.500145320937307    0.850700696298627  0.0000
  O      O         0.053642819713294    0.946482894563963    0.569555544915649  0.0000
  O      O         0.554007357831055    0.446118367658563    0.846146792253430  0.0000
  O      O         0.554214536322742    0.445911186446188    0.710243650408438  0.0000
  O      O         0.555109339050264    0.445016373596006    0.623594229973475  0.0000
  O      O         0.666031757161711    0.334093967912960    0.734670802385932  0.0000
  O      O         0.042313321919313    0.664226162328074    0.335975959318275  0.0000
  O      O         0.821072747444281    0.335367104584592    0.664835002486581  0.0000
  O      O         0.568304313524500    0.275677243155596    0.724524877579777  0.0000
  O      O         0.543587672786573    0.387853589916799    0.612348523524993  0.0000
  O      O         0.723122360473564    0.345963659037658    0.723198754649499  0.0000
  O      O         0.040792062464444    0.871404336346111    0.500056962877764  0.0000
  Si     Si        0.465434462633957    0.583593321706936    0.853854632421608  0.0000
  Si     Si        0.465056069250860    0.639012928897731    0.812749524314239  0.0000
  Si     Si        0.465060966091785    0.639421508879376    0.742944119356692  0.0000
  Si     Si        0.465300902542730    0.583707910497631    0.701983006130925  0.0000
  Si     Si        0.465447676349626    0.583717409569299    0.632583092097583  0.0000
  Si     Si        0.965424609426984    0.083514329750338    0.576989628223521  0.0000
  Si     Si        0.965024833254089    0.137874843062427    0.534810710425768  0.0000
  Si     Si        0.187043836565204    0.645445483883562    0.694327882311879  0.0000
  Si     Si        0.305117632940624    0.576374592523374    0.743794818479963  0.0000
  Si     Si        0.256334825751597    0.645534366912662    0.694555448274177  0.0000
  Si     Si        0.424267476379784    0.813465742423083    0.694904696644012  0.0000
  Si     Si        0.355320212467773    0.693778093085894    0.965458450760809  0.0000
  Si     Si        0.465171590330954    0.805882526133186    0.924753356098064  0.0000
  Si     Si        0.250754792833517    0.354417467408067    0.923991244264267  0.0000
  O      O         0.454469024211171    0.610723775042965    0.832608106806906  0.0000
  O      O         0.459250129302987    0.630937583796482    0.777794212826643  0.0000
  O      O         0.454520793642697    0.611297988288042    0.722766909056365  0.0000
  O      O         0.460526223121199    0.593470178458783    0.667249968093032  0.0000
  O      O         0.461205305083376    0.593926361494919    0.111612510549816  0.0000
  O      O         0.954053686317948    0.110396645389198    0.555609080363948  0.0000
  O      O         0.180762758010962    0.610634987969944    0.685922291462389  0.0000
  O      O         0.349477430611221    0.778448889177754    0.704348137024947  0.0000
  O      O         0.389204487617027    0.684635545738363    0.738595364054798  0.0000
  O      O         0.296468785965793    0.570248642330349    0.778524678154773  0.0000
  O      O         0.823183795265381    0.555130465581515    0.333064009370587  0.0000
  O      O         0.732904505530366    0.554964889517211    0.332269154413058  0.0000
  O      O         0.333597124653321    0.777140467141381    0.934338392532130  0.0000
  O      O         0.544341316023157    0.833675235401399    0.945593443413050  0.0000
  O      O         0.555743238821054    0.934577788088307    0.778068943487228  0.0000
  O      O         0.155884925939529    0.666206584056428    0.778306413473928  0.0000
  O      O         0.651533936809740    0.111178366171921    0.741184954865961  0.0000
  O      O         0.758152850917257    0.070347724674491    0.611018795920985  0.0000
  O      O         0.815015771713903    0.540972486863401    0.890112271667106  0.0000
  O      O         0.943860367797053    0.279491162950449    0.344613459530401  0.0000
  Si     Si        0.854156191473456    0.354320859856746    0.750056814338516  0.0000
  Si     Si        0.423987072927619    0.924151958927528    0.250056786368986  0.0000
  O      O         0.499980395576675    0.353158250573378    0.818771811849964  0.0000
  O      O         0.499980576208274    0.796632134298483    0.930027174232305  0.0000
  O      O         0.499980372676506    0.574859968768801    0.846913492757809  0.0000
  O      O         0.499980403468564    0.647563964280598    0.736938108213345  0.0000
  O      O         0.499980554994399    0.575153207799601    0.708673260759297  0.0000
  O      O         0.499980401940861    0.573775124019755    0.626826049156772  0.0000
  O      O         0.999980365937783    0.075111738601062    0.569861435475277  0.0000
  O      O         0.999980560317148    0.145757300205596    0.540688088946052  0.0000
  O      O         0.795932190995304    0.500145171354843    0.850700697868798  0.0000
  O      O         0.946318119744672    0.053807584232439    0.569555541448331  0.0000
  O      O         0.445953586083553    0.554172129091856    0.846146803179192  0.0000
  O      O         0.445746413282846    0.554379299204955    0.710243656217374  0.0000
  O      O         0.444851607133120    0.555274106799803    0.623594229468707  0.0000
  O      O         0.333929194294683    0.666196517574631    0.734670807083093  0.0000
  O      O         0.957647622994809    0.336064319074631    0.335975961131439  0.0000
  O      O         0.178888199175093    0.664923377582510    0.664835006795930  0.0000
  O      O         0.431656631418251    0.724613246952383    0.724524881054475  0.0000
  O      O         0.456373274701188    0.612436891225210    0.612348526443575  0.0000
  O      O         0.276838591651624    0.654326827902450    0.723198749049135  0.0000
  O      O         0.959168879714074    0.128886141952665    0.500056964119811  0.0000
  Si     Si        0.146182709781669    0.416697156492613    0.465510866726857  0.0000
  Si     Si        0.187287819665930    0.361277550192238    0.465132474117055  0.0000
  Si     Si        0.257093225232208    0.360868970070406    0.465137371753398  0.0000
  Si     Si        0.298054335536604    0.416582568865281    0.465377309527638  0.0000
  Si     Si        0.367454249970679    0.416573074324266    0.465524085465673  0.0000
  Si     Si        0.423047714077917    0.916776139219170    0.965501016442642  0.0000
  Si     Si        0.465226630261461    0.862415624447082    0.965101241167747  0.0000
  Si     Si        0.305709463822946    0.354845020706586    0.187120243413789  0.0000
  Si     Si        0.256242525260417    0.423915890981842    0.305194051287563  0.0000
  Si     Si        0.305481892944033    0.354756120728152    0.256411228569355  0.0000
  Si     Si        0.305132652821488    0.186824737710089    0.424343874803802  0.0000
  Si     Si        0.034578898187115    0.306512385674663    0.355396623445162  0.0000
  Si     Si        0.075283995293597    0.194407941707802    0.465247987659422  0.0000
  Si     Si        0.076046091129255    0.645873015249165    0.250831207391541  0.0000
  O      O         0.167429239881751    0.389566706072663    0.454545428166791  0.0000
  O      O         0.222243131459746    0.369352893503173    0.459326533870531  0.0000
  O      O         0.277270435134256    0.388992490202195    0.454597197084234  0.0000
  O      O         0.332787374579335    0.406820304825067    0.460602629093992  0.0000
  O      O         0.888424837474915    0.406364109086312    0.461281703027894  0.0000
  O      O         0.444428256205557    0.889893818834781    0.954130093515969  0.0000
  O      O         0.314115038596453    0.389655519706742    0.180839167857836  0.0000
  O      O         0.295689211733020    0.221841590817445    0.349553832810195  0.0000
  O      O         0.261441982837956    0.315654936371625    0.389280893588416  0.0000
  O      O         0.221512665207205    0.430041839249242    0.296545202103426  0.0000
  O      O         0.666973340820054    0.445160012552939    0.823260192141304  0.0000
  O      O         0.667768211412790    0.445325591076695    0.732980902803036  0.0000
  O      O         0.065698956044881    0.223150013524238    0.333673523905144  0.0000
  O      O         0.054443895993902    0.166615246452879    0.544417714425463  0.0000
  O      O         0.221968416881139    0.065712685880863    0.555819634051527  0.0000
  O      O         0.221730947125521    0.334083887717785    0.155961326131381  0.0000
  O      O         0.258852391033648    0.889112108717837    0.651610335865947  0.0000
  O      O         0.389018550707671    0.929942748883830    0.758229258996199  0.0000
  O      O         0.109925060550707    0.459318006970304    0.815092147925018  0.0000
  O      O         0.655423889217523    0.720799308709366    0.943936776391136  0.0000
  Si     Si        0.249980523273451    0.645969622286427    0.854232586526142  0.0000
  Si     Si        0.749980554571059    0.076138528203337    0.424063454789028  0.0000
  Si     Si        0.583428387503939    0.146347608642783    0.465511006028392  0.0000
  Si     Si        0.638847999198876    0.187452693781867    0.465132372184450  0.0000
  Si     Si        0.639256869048427    0.257258093947357    0.465137462292970  0.0000
  Si     Si        0.583543263004181    0.298219206271554    0.465377185435020  0.0000
  Si     Si        0.583552533721438    0.367619129276801    0.465524176661632  0.0000
  Si     Si        0.083349389704998    0.423212606192408    0.965501163930303  0.0000
  Si     Si        0.137709890922562    0.465391528776873    0.965101114726674  0.0000
  Si     Si        0.645280835578961    0.305874114233076    0.187120314231075  0.0000
  Si     Si        0.576209712451847    0.256407195390645    0.305193890514691  0.0000
  Si     Si        0.645369494368933    0.305646767666156    0.256411296167695  0.0000
  Si     Si        0.813301084781727    0.305297572173866    0.424343771441231  0.0000
  Si     Si        0.693613148727492    0.034743779705067    0.355396740668977  0.0000
  Si     Si        0.805717928752816    0.075448882587422    0.465247848004177  0.0000
  Si     Si        0.354252832327689    0.076210766830827    0.250831021756660  0.0000
  O      O         0.610558664844080    0.167594300796295    0.454545455236142  0.0000
  O      O         0.630772800350105    0.222408051348700    0.459326531427903  0.0000
  O      O         0.611133506993324    0.277435468491216    0.454597183493288  0.0000
  O      O         0.593305382892812    0.332952294217216    0.460602599950795  0.0000
  O      O         0.593761615238380    0.888589796615541    0.461281718040747  0.0000
  O      O         0.110231481622314    0.444593363190220    0.954130105811165  0.0000
  O      O         0.610470399856846    0.314279917073828    0.180839197005775  0.0000
  O      O         0.778283964921925    0.295853995267329    0.349553815365905  0.0000
  O      O         0.684470745658229    0.261606740634389    0.389281041561383  0.0000
  O      O         0.570083860550332    0.221677280417368    0.296545196616489  0.0000
  O      O         0.554965987786864    0.667137779677053    0.823260201317082  0.0000
  O      O         0.554799871935904    0.667933257622423    0.732980922649650  0.0000
  O      O         0.776975335088576    0.065863738571086    0.333673195803472  0.0000
  O      O         0.833510075168944    0.054608319130015    0.544417687867317  0.0000
  O      O         0.934413011178423    0.222133537213674    0.555819307283012  0.0000
  O      O         0.666041445698877    0.221895422380235    0.155961242426029  0.0000
  O      O         0.111013743673938    0.259017183056476    0.651610341914898  0.0000
  O      O         0.070182953333293    0.389183138636648    0.758229272102893  0.0000
  O      O         0.540807690689685    0.110089637273981    0.815092164035693  0.0000
  O      O         0.279326067298899    0.655588690661266    0.943937037491702  0.0000
  Si     Si        0.354156178638646    0.250145183860731    0.854232481691128  0.0000
  Si     Si        0.923987069326095    0.750145158164906    0.424063590644163  0.0000
  Si     Si        0.853778234343155    0.583593316989275    0.465510863464197  0.0000
  Si     Si        0.812673125860115    0.639012924148517    0.465132470781476  0.0000
  Si     Si        0.742867721043222    0.639421509569718    0.465137368352058  0.0000
  Si     Si        0.701906605361587    0.583707914242171    0.465377302876811  0.0000
  Si     Si        0.632506691499879    0.583717410441415    0.465524078253415  0.0000
  Si     Si        0.576913238851875    0.083514360416219    0.965500982338574  0.0000
  Si     Si        0.534734311504684    0.137874858300178    0.965101190427989  0.0000
  Si     Si        0.694251476186484    0.645445468430392    0.187120244865782  0.0000
  Si     Si        0.743718417400652    0.576374586636816    0.305194047300772  0.0000
  Si     Si        0.694479047459247    0.645534357573486    0.256411234239344  0.0000
  Si     Si        0.694828291306602    0.813465745152142    0.424343873643166  0.0000
  Si     Si        0.965382042625964    0.693778092365961    0.355396624333807  0.0000
  Si     Si        0.924676948126301    0.805882539132428    0.465247984256606  0.0000
  Si     Si        0.923914847559569    0.354417458149243    0.250831206956878  0.0000
  O      O         0.832531704452096    0.610723767520253    0.454545424939897  0.0000
  O      O         0.777717813799167    0.630937581773270    0.459326530954525  0.0000
  O      O         0.722690507522266    0.611297992320469    0.454597191598704  0.0000
  O      O         0.667173566896499    0.593470181882827    0.460602623443796  0.0000
  O      O         0.111536106337349    0.593926367300213    0.461281701168914  0.0000
  O      O         0.555532703142630    0.110396677163631    0.954130037990207  0.0000
  O      O         0.685845891059387    0.610634970095395    0.180839167706170  0.0000
  O      O         0.704271738690006    0.778448890982923    0.349553829589737  0.0000
  O      O         0.738518966656608    0.684635547844475    0.389280894979244  0.0000
  O      O         0.778448277433953    0.570248639633228    0.296545197110704  0.0000
  O      O         0.332987601164525    0.555130475953909    0.823260193993368  0.0000
  O      O         0.332192738414193    0.554964895544865    0.732980900254244  0.0000
  O      O         0.934261986578140    0.777140467870117    0.333673524229460  0.0000
  O      O         0.945517048924617    0.833675228930424    0.544417712402244  0.0000
  O      O         0.777992529773142    0.934577790099784    0.555819632568759  0.0000
  O      O         0.778230001438475    0.666206593589783    0.155961334675783  0.0000
  O      O         0.741108553612587    0.111178366780212    0.651610337465826  0.0000
  O      O         0.610942395993214    0.070347725809418    0.758229256985419  0.0000
  O      O         0.890035885635083    0.540972476410639    0.815092147905072  0.0000
  O      O         0.344537052407924    0.279491187981120    0.943936748466189  0.0000
  Si     Si        0.749980432275221    0.354320870322822    0.854232577532404  0.0000
  Si     Si        0.249980391045002    0.924151962277830    0.424063467817863  0.0000
  Si     Si        0.416532562281395    0.853942877423520    0.465510997364182  0.0000
  Si     Si        0.361112951029626    0.812837788436303    0.465132370472776  0.0000
  Si     Si        0.360704077402243    0.743032388478154    0.465137458548899  0.0000
  Si     Si        0.416417679604236    0.702071274973290    0.465377190100189  0.0000
  Si     Si        0.416408413767000    0.632671352631019    0.465524175600820  0.0000
  Si     Si        0.916611561391463    0.577077876773886    0.965501167071900  0.0000
  Si     Si        0.862251059186935    0.534898956263617    0.965101112644982  0.0000
  Si     Si        0.354680120139408    0.694416366709542    0.187120344353685  0.0000
  Si     Si        0.423751225338857    0.743883300723127    0.305193914733018  0.0000
  Si     Si        0.354591453547630    0.694643700035346    0.256411338622046  0.0000
  Si     Si        0.186659857561417    0.694992908710223    0.424343778992289  0.0000
  Si     Si        0.306347776366978    0.965546720896593    0.355396745108985  0.0000
  Si     Si        0.194243011365121    0.924841599328104    0.465247852493563  0.0000
  Si     Si        0.645708128627714    0.924079720885977    0.250831042286018  0.0000
  O      O         0.389402284633047    0.832696182013836    0.454545451990530  0.0000
  O      O         0.369188148661706    0.777882430740760    0.459326527835191  0.0000
  O      O         0.388827438309163    0.722855012089507    0.454597179168172  0.0000
  O      O         0.406655558662639    0.667338187089346    0.460602606651624  0.0000
  O      O         0.406199342509347    0.111700685380691    0.461281719117904  0.0000
  O      O         0.889729471188255    0.555697119542029    0.954130106347449  0.0000
  O      O         0.389490568101138    0.686010653929005    0.180839167976809  0.0000
  O      O         0.221676971883578    0.704436486425096    0.349553819096861  0.0000
  O      O         0.315490183834454    0.738683752679550    0.389281044921008  0.0000
  O      O         0.429877083463852    0.778613208831620    0.296545191683486  0.0000
  O      O         0.444994953320869    0.333152711475815    0.823260203975743  0.0000
  O      O         0.445161078483669    0.332357225186845    0.732980918857969  0.0000
  O      O         0.222985585042058    0.934426752192042    0.333673219761595  0.0000
  O      O         0.166450860854843    0.945682154822200    0.544417692433927  0.0000
  O      O         0.065547932364675    0.778156942173886    0.555819306058702  0.0000
  O      O         0.333919390341539    0.778395052809645    0.155961311351853  0.0000
  O      O         0.888947203157199    0.741273293776896    0.651610337641364  0.0000
  O      O         0.929777992556836    0.611107340513439    0.758229270035234  0.0000
  O      O         0.459153259491135    0.890200826480080    0.815092157862644  0.0000
  O      O         0.720634907811957    0.344701805382198    0.943937030141050  0.0000
  Si     Si        0.645804766043840    0.750145291803883    0.854232497609264  0.0000
  Si     Si        0.075973879179811    0.250145321852752    0.424063591508020  0.0000
  Si     Si        0.146182711262897    0.583593318645211    0.534602884268581  0.0000
  Si     Si        0.187287821313651    0.639012924480578    0.534981279295194  0.0000
  Si     Si        0.257093226261770    0.639421510479222    0.534976383025193  0.0000
  Si     Si        0.298054341653151    0.583707915132689    0.534736450781986  0.0000
  Si     Si        0.367454255724608    0.583717410117713    0.534589675027067  0.0000
  Si     Si        0.423047710571095    0.083514335761397    0.034612722394772  0.0000
  Si     Si        0.465226623157470    0.137874846056464    0.035012469521136  0.0000
  Si     Si        0.305709456948307    0.645445484654167    0.812993505052137  0.0000
  Si     Si        0.256242520858448    0.576374591659062    0.694919706905191  0.0000
  Si     Si        0.305481891139475    0.645534368481425    0.743702517560181  0.0000
  Si     Si        0.305132655091443    0.813465745648470    0.575769871120963  0.0000
  Si     Si        0.034578902819250    0.693778090441122    0.644717122945279  0.0000
  Si     Si        0.075283996038554    0.805882537510913    0.534865758748918  0.0000
  Si     Si        0.076046089101060    0.354417462702950    0.749282547406511  0.0000
  O      O         0.167429243015457    0.610723767224144    0.545568323954057  0.0000
  O      O         0.222243133327046    0.630937583527083    0.540787221732832  0.0000
  O      O         0.277270439665699    0.611297993756978    0.545516560185703  0.0000
  O      O         0.332787380422590    0.593470181548120    0.539511130399154  0.0000
  O      O         0.888424839752662    0.593926366644125    0.538832046018867  0.0000
  O      O         0.444428249484475    0.110396661948998    0.045983639557413  0.0000
  O      O         0.314115045085773    0.610634987796959    0.819274580090508  0.0000
  O      O         0.295689210088435    0.778448890012907    0.650559915120756  0.0000
  O      O         0.261441981049866    0.684635549237397    0.610832854991618  0.0000
  O      O         0.221512660061359    0.570248644887719    0.703568552822936  0.0000
  O      O         0.666973370834615    0.555130438071537    0.176853555530508  0.0000
  O      O         0.667768195943815    0.554964882549486    0.267132838089286  0.0000
  O      O         0.065698954738693    0.777140463971453    0.666440225356540  0.0000
  O      O         0.054443895516083    0.833675230817817    0.455696029801871  0.0000
  O      O         0.221968417525211    0.934577792064800    0.444294112628218  0.0000
  O      O         0.221730928066274    0.666206584715951    0.844152422145172  0.0000
  O      O         0.258852391719435    0.111178371199075    0.348503410629744  0.0000
  O      O         0.389018572219490    0.070347736166997    0.241884469512380  0.0000
  O      O         0.109925064298739    0.540972472371733    0.185021599485972  0.0000
  O      O         0.655423882704082    0.279491171199961    0.056176908875200  0.0000
  Si     Si        0.249980534935630    0.354320858886335    0.145881157494416  0.0000
  Si     Si        0.749980559081684    0.924151958656807    0.576050280010725  0.0000
  Si     Si        0.416532556141430    0.146347601317240    0.534602751249603  0.0000
  Si     Si        0.361112944480481    0.187452688381529    0.534981379339921  0.0000
  Si     Si        0.360704074403298    0.257258088778036    0.534976290893159  0.0000
  Si     Si        0.416417677309708    0.298219203271357    0.534736563289413  0.0000
  Si     Si        0.416408406672871    0.367619124855499    0.534589582594756  0.0000
  Si     Si        0.916611549653452    0.423212601177011    0.034612588022596  0.0000
  Si     Si        0.862251043503612    0.465391521032126    0.035012631218913  0.0000
  Si     Si        0.354680120558781    0.305874119764524    0.812993404324265  0.0000
  Si     Si        0.423751221931611    0.256407175253416    0.694919836717989  0.0000
  Si     Si        0.354591453188586    0.305646783398952    0.743702408681336  0.0000
  Si     Si        0.186659855659211    0.305297567759853    0.575769974319107  0.0000
  Si     Si        0.306347774732883    0.034743760247295    0.644716997074295  0.0000
  Si     Si        0.194243010479489    0.075448877617913    0.534865893834297  0.0000
  Si     Si        0.645708134457223    0.076210758576545    0.749282705549954  0.0000
  O      O         0.389402277150539    0.167594293705186    0.545568298612936  0.0000
  O      O         0.369188142987660    0.222408045947121    0.540787221245098  0.0000
  O      O         0.388827437200245    0.277435462327586    0.545516569810192  0.0000
  O      O         0.406655552884713    0.332952289812717    0.539511151557063  0.0000
  O      O         0.406199339483408    0.888589791298659    0.538832027780071  0.0000
  O      O         0.889729449639181    0.444593351572514    0.045983641318733  0.0000
  O      O         0.389490569074292    0.314279830380793    0.819274583002405  0.0000
  O      O         0.221676969363571    0.295853991073908    0.650559934582449  0.0000
  O      O         0.315490182891391    0.261606726846235    0.610832706855920  0.0000
  O      O         0.429877080863209    0.221677266889323    0.703568558027529  0.0000
  O      O         0.444994944237727    0.667137761268463    0.176853545595382  0.0000
  O      O         0.445161076211794    0.667933250247257    0.267132823737958  0.0000
  O      O         0.222985583610480    0.065863724747756    0.666440528507150  0.0000
  O      O         0.166450868773238    0.054608319448710    0.455696050116898  0.0000
  O      O         0.065547934099449    0.222133538101803    0.444294440762145  0.0000
  O      O         0.333919377858161    0.221895430349454    0.844152431703556  0.0000
  O      O         0.888947193303103    0.259017190439670    0.348503405663365  0.0000
  O      O         0.929777979811189    0.389183134357111    0.241884482064244  0.0000
  O      O         0.459153223720052    0.110089675583469    0.185021596589281  0.0000
  O      O         0.720634868247379    0.655588682398511    0.056176713894884  0.0000
  Si     Si        0.645804665419122    0.250145186674446    0.145881180469675  0.0000
  Si     Si        0.075973875935293    0.750145158179575    0.576050156065216  0.0000
  Si     Si        0.853778234708990    0.416697157257596    0.534602883914312  0.0000
  Si     Si        0.812673125384892    0.361277550027679    0.534981277197121  0.0000
  Si     Si        0.742867720045365    0.360868971358696    0.534976383179495  0.0000
  Si     Si        0.701906604013683    0.416582567273707    0.534736448158330  0.0000
  Si     Si        0.632506690394157    0.416573069997691    0.534589672632938  0.0000
  Si     Si        0.576913225676088    0.916776136388980    0.034612747987460  0.0000
  Si     Si        0.534734312933075    0.862415619886339    0.035012510584926  0.0000
  Si     Si        0.694251488234406    0.354845002971534    0.812993507931283  0.0000
  Si     Si        0.743718427234580    0.423915891610642    0.694919707962325  0.0000
  Si     Si        0.694479057927322    0.354756117526724    0.743702519309321  0.0000
  Si     Si        0.694828295184985    0.186824737487609    0.575769873994052  0.0000
  Si     Si        0.965382043802094    0.306512386178859    0.644717126029931  0.0000
  Si     Si        0.924676949238597    0.194407942469270    0.534865758299628  0.0000
  Si     Si        0.923914858912823    0.645873017404310    0.749282549417538  0.0000
  O      O         0.832531706424698    0.389566705360475    0.545568322042918  0.0000
  O      O         0.777717814155864    0.369352894891083    0.540787219438171  0.0000
  O      O         0.722690509563193    0.388992491200685    0.545516557184409  0.0000
  O      O         0.667173565871133    0.406820297167854    0.539511127094672  0.0000
  O      O         0.111536105374105    0.406364109791883    0.538832049491663  0.0000
  O      O         0.555532688025971    0.889893810018693    0.045983664926466  0.0000
  O      O         0.685845897082844    0.389655499977249    0.819274580227522  0.0000
  O      O         0.704271739901038    0.221841589108464    0.650559918812572  0.0000
  O      O         0.738518963401263    0.315654931804514    0.610832858719276  0.0000
  O      O         0.778448288182797    0.430041838253624    0.703568554046451  0.0000
  O      O         0.332987571127811    0.445160041674427    0.176853556981748  0.0000
  O      O         0.332192744282604    0.445325594650456    0.267132842159828  0.0000
  O      O         0.934261991181677    0.223150011691230    0.666440225210868  0.0000
  O      O         0.945517045257940    0.166615248500260    0.455696031320064  0.0000
  O      O         0.777992526269763    0.065712693575016    0.444294100035732  0.0000
  O      O         0.778230021675813    0.334083901949686    0.844152407411156  0.0000
  O      O         0.741108538763975    0.889112119286326    0.348503404435822  0.0000
  O      O         0.610942388795235    0.929942749074365    0.241884495129422  0.0000
  O      O         0.890035874588777    0.459318005850375    0.185021590181969  0.0000
  O      O         0.344537054774760    0.720799312656701    0.056176982009597  0.0000
  Si     Si        0.749980413329708    0.645969623329451    0.145881165299495  0.0000
  Si     Si        0.249980388365134    0.076138519201642    0.576050279715569  0.0000
  Si     Si        0.583428388022645    0.853942876383817    0.534602743278299  0.0000
  Si     Si        0.638848000307904    0.812837788106877    0.534981373578352  0.0000
  Si     Si        0.639256871602343    0.743032388158952    0.534976288704679  0.0000
  Si     Si        0.583543268488651    0.702071276051603    0.534736560348726  0.0000
  Si     Si        0.583552533922287    0.632671353279077    0.534589575880935  0.0000
  Si     Si        0.083349392661229    0.577077880374813    0.034612590793888  0.0000
  Si     Si        0.137709899797423    0.534898962966933    0.035012634331502  0.0000
  Si     Si        0.645280823620524    0.694416363645402    0.812993407795393  0.0000
  Si     Si        0.576209726992831    0.743883303320328    0.694919832923829  0.0000
  Si     Si        0.645369495650618    0.694643702143192    0.743702413896865  0.0000
  Si     Si        0.813301090525696    0.694992907629127    0.575769971204463  0.0000
  Si     Si        0.693613172595560    0.965546714635633    0.644716998815643  0.0000
  Si     Si        0.805717934093215    0.924841598803413    0.534865889586507  0.0000
  Si     Si        0.354252812129349    0.924079715346223    0.749282708821093  0.0000
  O      O         0.610558666688694    0.832696183002232    0.545568288806492  0.0000
  O      O         0.630772802128110    0.777882431003256    0.540787218274066  0.0000
  O      O         0.611133510505341    0.722855013159078    0.545516570030091  0.0000
  O      O         0.593305388334825    0.667338187987427    0.539511144693379  0.0000
  O      O         0.593761604040465    0.111700681677028    0.538832026187684  0.0000
  O      O         0.110231492731710    0.555697130835708    0.045983644837087  0.0000
  O      O         0.610470374173953    0.686010653851866    0.819274581579822  0.0000
  O      O         0.778283977999819    0.704436486932636    0.650559930537266  0.0000
  O      O         0.684470762556977    0.738683750393252    0.610832704328190  0.0000
  O      O         0.570083867432674    0.778613211787526    0.703568552149627  0.0000
  O      O         0.554966048263988    0.333152858223651    0.176853561842841  0.0000
  O      O         0.554799869821406    0.332357217810698    0.267132783184572  0.0000
  O      O         0.776975362365333    0.934426749890543    0.666440530966363  0.0000
  O      O         0.833510079342918    0.945682158495096    0.455696050615324  0.0000
  O      O         0.934413013855985    0.778156944658527    0.444294436614769  0.0000
  O      O         0.666041567362555    0.778395043657171    0.844152446137783  0.0000
  O      O         0.111013744365082    0.741273289940771    0.348503406851211  0.0000
  O      O         0.070182959348172    0.611107338718817    0.241884483791406  0.0000
  O      O         0.540807698698134    0.890200846515412    0.185021571727933  0.0000
  O      O         0.279326071850792    0.344701805365582    0.056176699378169  0.0000
  Si     Si        0.354156186810978    0.750145297410457    0.145881259555595  0.0000
  Si     Si        0.923987066751522    0.250145320482838    0.576050157807831  0.0000
  Si     Si        0.465434459788959    0.146347491010774    0.416608796787239  0.0000
  Si     Si        0.465056069257790    0.187452603538332    0.361189191905473  0.0000
  Si     Si        0.465060958008194    0.257258009284081    0.360780601449074  0.0000
  Si     Si        0.465300899034541    0.298219114192001    0.416494202410414  0.0000
  Si     Si        0.465447669221812    0.367619029882876    0.416484715800349  0.0000
  Si     Si        0.965424609474234    0.423212480488734    0.916687774465561  0.0000
  Si     Si        0.965024833776353    0.465391403844078    0.862327268128325  0.0000
  Si     Si        0.187043840904920    0.305874228704129    0.354756637379998  0.0000
  Si     Si        0.305117645144045    0.256407294896145    0.423827521909499  0.0000
  Si     Si        0.256334829532911    0.305646662524628    0.354667752239594  0.0000
  Si     Si        0.424267480147039    0.305297416534117    0.186736360755910  0.0000
  Si     Si        0.355320220615840    0.034743672406107    0.306424007222646  0.0000
  Si     Si        0.465171600151196    0.075448795689171    0.194319574270368  0.0000
  Si     Si        0.250754800814625    0.076210854243485    0.645784649057192  0.0000
  O      O         0.454469023473420    0.167594025209085    0.389478348590988  0.0000
  O      O         0.459250125372151    0.222407915543112    0.369264529110923  0.0000
  O      O         0.454520781996082    0.277435219010463    0.388904121559321  0.0000
  O      O         0.460526222465629    0.332952154372110    0.406731942880170  0.0000
  O      O         0.461205294611129    0.888589612716564    0.406275740393209  0.0000
  O      O         0.954053682763913    0.444593031963090    0.889805463031623  0.0000
  O      O         0.180762764968634    0.314279817075798    0.389567133949641  0.0000
  O      O         0.349477431109511    0.295853979625003    0.221753210029390  0.0000
  O      O         0.389204485275568    0.261606751482709    0.315566555240657  0.0000
  O      O         0.296468795534861    0.221677434858424    0.429953467326191  0.0000
  O      O         0.823183796063181    0.667138105502907    0.445071643454154  0.0000
  O      O         0.732904511049675    0.667932973310361    0.445237227778756  0.0000
  O      O         0.333597146201432    0.065863737824114    0.223061623160490  0.0000
  O      O         0.544341314995932    0.054608787904922    0.166526801601050  0.0000
  O      O         0.555743197393267    0.222133182835960    0.065624337065550  0.0000
  O      O         0.155884927876211    0.221895700726622    0.333995530833574  0.0000
  O      O         0.651533914615854    0.259017135746659    0.889023720991623  0.0000
  O      O         0.758152872777401    0.389183337543779    0.929854381714156  0.0000
  O      O         0.815015744589367    0.110089834097012    0.459229637142059  0.0000
  O      O         0.943860379668983    0.655588659928407    0.720710953163608  0.0000
  Si     Si        0.854156184196216    0.250145289545045    0.645881253235283  0.0000
  Si     Si        0.423987066156485    0.750145323861193    0.076050160437982  0.0000
  Si     Si        0.853778107731721    0.465599360596079    0.416608955777410  0.0000
  Si     Si        0.812673017934419    0.465220732569479    0.361189345436284  0.0000
  Si     Si        0.742867617346490    0.465225822039083    0.360780474790006  0.0000
  Si     Si        0.701906508580122    0.465465553130388    0.416494080765267  0.0000
  Si     Si        0.632506585717798    0.465612539750335    0.416484817173459  0.0000
  Si     Si        0.576913107142462    0.965589527926628    0.916687959555779  0.0000
  Si     Si        0.534734188534575    0.965189471203635    0.862327453737620  0.0000
  Si     Si        0.694251590850633    0.187208714590890    0.354756518611348  0.0000
  Si     Si        0.743718530817132    0.305282280404950    0.423827622782006  0.0000
  Si     Si        0.694478918149664    0.256499712541475    0.354667851506800  0.0000
  Si     Si        0.694828125251929    0.424432134018607    0.186736248436387  0.0000
  Si     Si        0.965381945919396    0.355485112701106    0.306424177106581  0.0000
  Si     Si        0.924676825819065    0.465336215290420    0.194319410401540  0.0000
  Si     Si        0.923914950561368    0.250919403593495    0.645784535451779  0.0000
  O      O         0.832531413963177    0.454633814263166    0.389478677383993  0.0000
  O      O         0.777717660121998    0.459414889754110    0.369264543244359  0.0000
  O      O         0.722690242938897    0.454685542592592    0.388903837054292  0.0000
  O      O         0.667173419997073    0.460690970869063    0.406731961553719  0.0000
  O      O         0.111535918527869    0.461370081173075    0.406275743247782  0.0000
  O      O         0.555532353265707    0.954218466681486    0.889805866098537  0.0000
  O      O         0.685845878141112    0.180927534134861    0.389566966388134  0.0000
  O      O         0.704271731028608    0.349642181812781    0.221753370667254  0.0000
  O      O         0.738518974082612    0.389369411565913    0.315566577046771  0.0000
  O      O         0.778448439247248    0.296633558157526    0.429953479509999  0.0000
  O      O         0.332987945505748    0.823348571719384    0.445071355994304  0.0000
  O      O         0.332192461052046    0.733069294001307    0.445237476086389  0.0000
  O      O         0.934261985285008    0.333761573565660    0.223061996752042  0.0000
  O      O         0.945517395200314    0.544506057191383    0.166527274346917  0.0000
  O      O         0.777992170645005    0.555907676355534    0.065624336187437  0.0000
  O      O         0.778230277785038    0.156049680537668    0.333995781444504  0.0000
  O      O         0.741108520154577    0.651698717024573    0.889023601726443  0.0000
  O      O         0.610942578836368    0.758317637917031    0.929854385841608  0.0000
  O      O         0.890036059146572    0.815180529486052    0.459229653030913  0.0000
  O      O         0.344537030877509    0.944025396694309    0.720711271706990  0.0000
  Si     Si        0.749980529466610    0.854320860834537    0.645881161069136  0.0000
  Si     Si        0.249980554371897    0.424151961999948    0.076050283434173  0.0000
  Si     Si        0.534526488783430    0.853943019051095    0.416608780422958  0.0000
  Si     Si        0.534904878290700    0.812837895844161    0.361189183214031  0.0000
  Si     Si        0.534899982926443    0.743032491911519    0.360780612107380  0.0000
  Si     Si        0.534660046092468    0.702071370569246    0.416494203783753  0.0000
  Si     Si        0.534513271406494    0.632671457085987    0.416484703551466  0.0000
  Si     Si        0.034536339329074    0.577078001094703    0.916687775412126  0.0000
  Si     Si        0.034936112931968    0.534899081509043    0.862327266749821  0.0000
  Si     Si        0.812917105897357    0.694416248966246    0.354756635313990  0.0000
  Si     Si        0.694843307972163    0.743883189145841    0.423827525432348  0.0000
  Si     Si        0.743626117274827    0.694643816904897    0.354667752001689  0.0000
  Si     Si        0.575693467216283    0.694993066840194    0.186736377072968  0.0000
  Si     Si        0.644640719121031    0.965546827999647    0.306424014102869  0.0000
  Si     Si        0.534789359490526    0.924841730904663    0.194319580408426  0.0000
  Si     Si        0.749206147082985    0.924079620601176    0.645784648697441  0.0000
  O      O         0.545491925812342    0.832696487048569    0.389478330801361  0.0000
  O      O         0.540710825156854    0.777882585964986    0.369264534432947  0.0000
  O      O         0.545440155706114    0.722855279855977    0.388904131142174  0.0000
  O      O         0.539434726822965    0.667338332891997    0.406731932381210  0.0000
  O      O         0.538755651920911    0.111700904753144    0.406275737240345  0.0000
  O      O         0.045907266417325    0.555697453750536    0.889805460636286  0.0000
  O      O         0.819198182804826    0.686010660956929    0.389567131679526  0.0000
  O      O         0.650483512742542    0.704436497754844    0.221753227246492  0.0000
  O      O         0.610756456260771    0.738683728029604    0.315566569839592  0.0000
  O      O         0.703492154730331    0.778613050003167    0.429953472333255  0.0000
  O      O         0.176777150277238    0.333152367724803    0.445071647387778  0.0000
  O      O         0.267056440948767    0.332357510079452    0.445237228339340  0.0000
  O      O         0.666363812780933    0.934426756097682    0.223061644723156  0.0000
  O      O         0.455619634909191    0.945681823654589    0.166526883327666  0.0000
  O      O         0.444217707489882    0.778157298614282    0.065624328267279  0.0000
  O      O         0.844076014382446    0.778394779770152    0.333995532676347  0.0000
  O      O         0.348427008610561    0.741273319419195    0.889023746935706  0.0000
  O      O         0.241808086208025    0.611107165530709    0.929854383410526  0.0000
  O      O         0.184945196389398    0.890200648352757    0.459229637978600  0.0000
  O      O         0.056100571113852    0.344701821817521    0.720710948892847  0.0000
  Si     Si        0.145804761337043    0.750145189078665    0.645881249426347  0.0000
  Si     Si        0.575973875164328    0.250145200068217    0.076049999536118  0.0000
  Si     Si        0.146182833662844    0.534691112807245    0.416608959294642  0.0000
  Si     Si        0.187287921192526    0.535069740122464    0.361189348586694  0.0000
  Si     Si        0.257093321703187    0.535064654592742    0.360780481983181  0.0000
  Si     Si        0.298054432806997    0.534824927660351    0.416494085754140  0.0000
  Si     Si        0.367454355312543    0.534677944355909    0.416484817289481  0.0000
  Si     Si        0.423047830904709    0.034700940697140    0.916687943678267  0.0000
  Si     Si        0.465226754357002    0.035100991521754    0.862327445389767  0.0000
  Si     Si        0.305709352402574    0.813081777083793    0.354756524728073  0.0000
  Si     Si        0.256242411752800    0.695008203734679    0.423827626937861  0.0000
  Si     Si        0.305482012174571    0.743790782526500    0.354667855720014  0.0000
  Si     Si        0.305132804564453    0.575858344316445    0.186736263086943  0.0000
  Si     Si        0.034578994599813    0.644805364882520    0.306424178611517  0.0000
  Si     Si        0.075284113167964    0.534954259537040    0.194319415569902  0.0000
  Si     Si        0.076045994973305    0.749371073619650    0.645784533339422  0.0000
  O      O         0.167429525100524    0.545656659242308    0.389478679712498  0.0000
  O      O         0.222243278216023    0.540875584232343    0.369264548249695  0.0000
  O      O         0.277270693930427    0.545604936275218    0.388903844902658  0.0000
  O      O         0.332787520281664    0.539599511141275    0.406731962280741  0.0000
  O      O         0.888425024132047    0.538920392845678    0.406275741316982  0.0000
  O      O         0.444428586168542    0.046072003539509    0.889805851848194  0.0000
  O      O         0.314115063343663    0.819362950147793    0.389566973850145  0.0000
  O      O         0.295689224835614    0.650648304609523    0.221753380780771  0.0000
  O      O         0.261441963198608    0.610921070041630    0.315566592714883  0.0000
  O      O         0.221512503201756    0.703656922988858    0.429953485960771  0.0000
  O      O         0.666973002308421    0.176941912376293    0.445071352910725  0.0000
  O      O         0.667768483741368    0.267221191071186    0.445237479145183  0.0000
  O      O         0.065698960706311    0.666528895757102    0.223061991622446  0.0000
  O      O         0.054443550731204    0.455784417429095    0.166527270959321  0.0000
  O      O         0.221968767816237    0.444382807784533    0.065624339840671  0.0000
  O      O         0.221730669862461    0.844240811675146    0.333995787126333  0.0000
  O      O         0.258852415990576    0.348591775170943    0.889023591875567  0.0000
  O      O         0.389018362343390    0.241972852285511    0.929854379370140  0.0000
  O      O         0.109924883627371    0.185109948418187    0.459229657765158  0.0000
  O      O         0.655423915028854    0.056265076590072    0.720711269214231  0.0000
  Si     Si        0.249980418032580    0.145969613806074    0.645881164223001  0.0000
  Si     Si        0.749980386538523    0.576138522996583    0.076050285725115  0.0000
  Si     Si        0.465434464053392    0.853943000345430    0.583504953541280  0.0000
  Si     Si        0.465056071570939    0.812837891964296    0.638924559961240  0.0000
  Si     Si        0.465060967878443    0.743032486391916    0.639333143074049  0.0000
  Si     Si        0.465300901442403    0.702071371520408    0.583619547230010  0.0000
  Si     Si        0.465447676703065    0.632671457561305    0.583629045508342  0.0000
  Si     Si        0.965424609653239    0.577077997404483    0.083425981165800  0.0000
  Si     Si        0.965024834849034    0.534899077520231    0.137786490558382  0.0000
  Si     Si        0.187043839262081    0.694416252821315    0.645357113672613  0.0000
  Si     Si        0.305117639173403    0.743883188762761    0.576286221297788  0.0000
  Si     Si        0.256334827902352    0.694643819306637    0.645445997007466  0.0000
  Si     Si        0.424267471769665    0.694993063531207    0.813377375162639  0.0000
  Si     Si        0.355320220787835    0.965546806822797    0.693689725262436  0.0000
  Si     Si        0.465171589741738    0.924841714914464    0.805794166335524  0.0000
  Si     Si        0.250754804287542    0.924079624368433    0.354329097365479  0.0000
  O      O         0.454469024966303    0.832696470820343    0.610635403944830  0.0000
  O      O         0.459250130096556    0.777882579967722    0.630849218626469  0.0000
  O      O         0.454520792336985    0.722855275299324    0.611209624320169  0.0000
  O      O         0.460526222286448    0.667338333323556    0.593381815579501  0.0000
  O      O         0.461205299133551    0.111700873215778    0.593838005273510  0.0000
  O      O         0.954053683955464    0.555697451146531    0.110308297096798  0.0000
  O      O         0.180762763342768    0.686010661741817    0.610546617714191  0.0000
  O      O         0.349477426786001    0.704436508941651    0.778360522531647  0.0000
  O      O         0.389204490949957    0.738683728729329    0.684547177818642  0.0000
  O      O         0.296468793904401    0.778613049775294    0.570160274835799  0.0000
  O      O         0.823183795335808    0.333152367784294    0.555042103760972  0.0000
  O      O         0.732904505098254    0.332357512297261    0.554876527692886  0.0000
  O      O         0.333597122828123    0.934426756097420    0.777052101347358  0.0000
  O      O         0.544341316577118    0.945681802367783    0.833586874836868  0.0000
  O      O         0.555743243034830    0.778157307848574    0.934489422574543  0.0000
  O      O         0.155884926846816    0.778394782998703    0.666118213084486  0.0000
  O      O         0.651533940962483    0.741273314314368    0.111090007035108  0.0000
  O      O         0.758152852015774    0.611107163710971    0.070259369747861  0.0000
  O      O         0.815015750225272    0.890200647925292    0.540884102616366  0.0000
  O      O         0.943860363518969    0.344701821416012    0.279402808367491  0.0000
  Si     Si        0.854156182578534    0.750145186136250    0.354232495676839  0.0000
  Si     Si        0.423987057090675    0.250145152308524    0.924063580926000  0.0000
  Si     Si        0.146182833675021    0.465599363192005    0.583504791933791  0.0000
  Si     Si        0.187287919818751    0.465220738918870    0.638924404003641  0.0000
  Si     Si        0.257093320410120    0.465225825944651    0.639333274482967  0.0000
  Si     Si        0.298054434280932    0.465465555625192    0.583619672823297  0.0000
  Si     Si        0.367454356271431    0.465612538865038    0.583628940260166  0.0000
  Si     Si        0.423047842944647    0.965589534705051    0.083425799160365  0.0000
  Si     Si        0.465226753789731    0.965189506513587    0.137786310633814  0.0000
  Si     Si        0.305709347777942    0.187208701170301    0.645357225260913  0.0000
  Si     Si        0.256242409896195    0.305282275501443    0.576286126758222  0.0000
  Si     Si        0.305482009577834    0.256499695614476    0.645445895511526  0.0000
  Si     Si        0.305132800368449    0.424432143786473    0.813377486435605  0.0000
  Si     Si        0.034578998657567    0.355485111799654    0.693689571726781  0.0000
  Si     Si        0.075284108992217    0.465336221558740    0.805794335735810  0.0000
  Si     Si        0.076045995706047    0.250919405658641    0.354329213930578  0.0000
  O      O         0.167429525620868    0.454633818805943    0.610635072017726  0.0000
  O      O         0.222243277382548    0.459414896423481    0.630849206090308  0.0000
  O      O         0.277270694540935    0.454685546626500    0.611209912463595  0.0000
  O      O         0.332787521628369    0.460690970725812    0.593381796171272  0.0000
  O      O         0.888425025017923    0.461370080249845    0.593838008099927  0.0000
  O      O         0.444428602247263    0.954218485840268    0.110307894873181  0.0000
  O      O         0.314115058591193    0.180927527114189    0.610546776307556  0.0000
  O      O         0.295689229082509    0.349642183559389    0.778360370140180  0.0000
  O      O         0.261441957163199    0.389369407650295    0.684547157829412  0.0000
  O      O         0.221512501642692    0.296633555119342    0.570160267317534  0.0000
  O      O         0.666973006093824    0.823348570775985    0.555042388301842  0.0000
  O      O         0.667768487684343    0.733069292847425    0.554876271157836  0.0000
  O      O         0.065698959541416    0.333761579706308    0.777051761556320  0.0000
  O      O         0.054443552928582    0.544506063113724    0.833586483835170  0.0000
  O      O         0.221968771689487    0.555907674294422    0.934489410794099  0.0000
  O      O         0.221730666566856    0.156049666529190    0.666117965463292  0.0000
  O      O         0.258852418974746    0.651698707567022    0.111090154180228  0.0000
  O      O         0.389018372252416    0.758317632771850    0.070259367755748  0.0000
  O      O         0.109924884720065    0.815180528502826    0.540884090470090  0.0000
  O      O         0.655423910502813    0.944025414791860    0.279402470769508  0.0000
  Si     Si        0.249980423130156    0.854320865490618    0.354232585404654  0.0000
  Si     Si        0.749980393069309    0.424151974577239    0.924063461608474  0.0000
  Si     Si        0.534526485852132    0.146347472541530    0.583504960943801  0.0000
  Si     Si        0.534904875196170    0.187452583868759    0.638924567867841  0.0000
  Si     Si        0.534899981264190    0.257257989143484    0.639333141693058  0.0000
  Si     Si        0.534660043748068    0.298219107357544    0.583619548037754  0.0000
  Si     Si        0.534513267676881    0.367619019966556    0.583629045329484  0.0000
  Si     Si        0.034536333904038    0.423212482315950    0.083425976533749  0.0000
  Si     Si        0.034936109510904    0.465391399809766    0.137786488927758  0.0000
  Si     Si        0.812917107193464    0.305874226672781    0.645357113456763  0.0000
  Si     Si        0.694843303150274    0.256407293766823    0.576286225330315  0.0000
  Si     Si        0.743626118380464    0.305646661786644    0.645446000553322  0.0000
  Si     Si        0.575693475255206    0.305297423373605    0.813377370675275  0.0000
  Si     Si        0.644640725570751    0.034743665115766    0.693689724169456  0.0000
  Si     Si        0.534789357254371    0.075448751067897    0.805794164388707  0.0000
  Si     Si        0.749206127085837    0.076210871403294    0.354329086530236  0.0000
  O      O         0.545491921059940    0.167593998204885    0.610635416214476  0.0000
  O      O         0.540710818172571    0.222407894587926    0.630849219292399  0.0000
  O      O         0.545440155430897    0.277435198905330    0.611209621090901  0.0000
  O      O         0.539434722443744    0.332952145126054    0.593381820024347  0.0000
  O      O         0.538755648052291    0.888589601991716    0.593837997487183  0.0000
  O      O         0.045907258963897    0.444593027881003    0.110308293501361  0.0000
  O      O         0.819198182356322    0.314279814276177    0.610546616717870  0.0000
  O      O         0.650483514678140    0.295853984983332    0.778360519585294  0.0000
  O      O         0.610756457414403    0.261606747805430    0.684547182213000  0.0000
  O      O         0.703492152910001    0.221677434085089    0.570160277582021  0.0000
  O      O         0.176777148789193    0.667138105445617    0.555042106150086  0.0000
  O      O         0.267056439782797    0.667932973236715    0.554876523190426  0.0000
  O      O         0.666363824863419    0.065863716855337    0.777052096405345  0.0000
  O      O         0.455619630347355    0.054608655876391    0.833586862451726  0.0000
  O      O         0.444217693861201    0.222133174783009    0.934489417033591  0.0000
  O      O         0.844076018786754    0.221895696321938    0.666118218039514  0.0000
  O      O         0.348426944881952    0.259017196947018    0.111089973311943  0.0000
  O      O         0.241808089155776    0.389183321512981    0.070259365548030  0.0000
  O      O         0.184945194318571    0.110089828219348    0.540884109176730  0.0000
  O      O         0.056100570240031    0.655588655049616    0.279402804227122  0.0000
  Si     Si        0.145804761596239    0.250145292840962    0.354232496708229  0.0000
  Si     Si        0.575973884195967    0.750145331794103    0.924063592598423  0.0000
  Si     Si        0.853778112091574    0.534691113405317    0.583504789674280  0.0000
  Si     Si        0.812673024687786    0.535069742678747    0.638924400483350  0.0000
  Si     Si        0.742867624103650    0.535064656536066    0.639333272218893  0.0000
  Si     Si        0.701906510904735    0.534824926373554    0.583619669507151  0.0000
  Si     Si        0.632506588834231    0.534677944566135    0.583628935549737  0.0000
  Si     Si        0.576913096099594    0.034700960997022    0.083425755315068  0.0000
  Si     Si        0.534734184965144    0.035101039480082    0.137786274319728  0.0000
  Si     Si        0.694251597295565    0.813081776790945    0.645357220946684  0.0000
  Si     Si        0.743718536099251    0.695008201181224    0.576286124680963  0.0000
  Si     Si        0.694478937002694    0.743790781969272    0.645445892821566  0.0000
  Si     Si        0.694828145916448    0.575858340784567    0.813377487933639  0.0000
  Si     Si        0.965381950621603    0.644805368822361    0.693689575022600  0.0000
  Si     Si        0.924676837436315    0.534954261512649    0.805794336734450  0.0000
  Si     Si        0.923914948853584    0.749371073769638    0.354329212510024  0.0000
  O      O         0.832531418332829    0.545656660089206    0.610635067168730  0.0000
  O      O         0.777717667070217    0.540875586139828    0.630849203421097  0.0000
  O      O         0.722690249759753    0.545604936113200    0.611209909981374  0.0000
  O      O         0.667173423416934    0.539599512693863    0.593381791624376  0.0000
  O      O         0.111535920793454    0.538920395202941    0.593838008681441  0.0000
  O      O         0.555532326937342    0.046072017773439    0.110307834907375  0.0000
  O      O         0.685845885620351    0.819362950821763    0.610546772143981  0.0000
  O      O         0.704271722578701    0.650648302536883    0.778360373573887  0.0000
  O      O         0.738518990126980    0.610921073879293    0.684547159702411  0.0000
  O      O         0.778448444463965    0.703656920562741    0.570160264960170  0.0000
  O      O         0.332987938703294    0.176941905930258    0.555042393708824  0.0000
  O      O         0.332192459293750    0.267221184830825    0.554876274424502  0.0000
  O      O         0.934261987306903    0.666528895357572    0.777051768122728  0.0000
  O      O         0.945517392074934    0.455784420692380    0.833586486759615  0.0000
  O      O         0.777992169076904    0.444382831451327    0.934489411390335  0.0000
  O      O         0.778230280244933    0.844240806808883    0.666117962909902  0.0000
  O      O         0.741108528433450    0.348591782246568    0.111090141957386  0.0000
  O      O         0.610942561708024    0.241972827512867    0.070259200397706  0.0000
  O      O         0.890036060983494    0.185109949368310    0.540884088232854  0.0000
  O      O         0.344537043872110    0.056265076203311    0.279402449747332  0.0000
  Si     Si        0.749980524634887    0.145969631530815    0.354232581738118  0.0000
  Si     Si        0.249980554820306    0.576138525403790    0.924063466834892  0.0000
  Si     Si        0.416532359744360    0.465599229773288    0.146259094047297  0.0000
  Si     Si        0.361112768001867    0.465220849881621    0.187364220610593  0.0000
  Si     Si        0.360704204387316    0.465225735488920    0.257169622930119  0.0000
  Si     Si        0.416417794621323    0.465465665961365    0.298130747763717  0.0000
  Si     Si        0.416408287655204    0.465612441928375    0.367530659773320  0.0000
  Si     Si        0.916611370088560    0.965589381163133    0.423124112178378  0.0000
  Si     Si        0.862250859853735    0.965189602888165    0.465303031721328  0.0000
  Si     Si        0.354680235058818    0.187208607598869    0.305785863068918  0.0000
  Si     Si        0.423751120339814    0.305282403527797    0.256318916513220  0.0000
  Si     Si        0.354591343478378    0.256499596313940    0.305558285929902  0.0000
  Si     Si        0.186659968277571    0.424432240718544    0.305209057457657  0.0000
  Si     Si        0.306347613301085    0.355485002301630    0.034655286682939  0.0000
  Si     Si        0.194243171029748    0.465336356267945    0.075360396129513  0.0000
  Si     Si        0.645708222540149    0.250919566795448    0.076122411165422  0.0000
  O      O         0.389401905445824    0.454633795297327    0.167505620381899  0.0000
  O      O         0.369188124493737    0.459414895463600    0.222319528097144  0.0000
  O      O         0.388827724292026    0.454685559734055    0.277346832752266  0.0000
  O      O         0.406655516083662    0.460690986296927    0.332863783826953  0.0000
  O      O         0.406199330373078    0.461370073910721    0.888501216971579  0.0000
  O      O         0.889729055134331    0.954218454309939    0.444504659024103  0.0000
  O      O         0.389490732761265    0.180927536070001    0.314191453171579  0.0000
  O      O         0.221676823647499    0.349642195471048    0.295765612566816  0.0000
  O      O         0.315490165464569    0.389369262143937    0.261518386513491  0.0000
  O      O         0.429877067116012    0.296633550039587    0.221589056909847  0.0000
  O      O         0.444995245357527    0.823348563390540    0.667049741895927  0.0000
  O      O         0.445160824946131    0.733069271303967    0.667844603293739  0.0000
  O      O         0.222985245968515    0.333761893573777    0.065775357499719  0.0000
  O      O         0.166450480151827    0.544506085426708    0.054520304011837  0.0000
  O      O         0.065547922460421    0.555908000609524    0.222044821610933  0.0000
  O      O         0.333919131304653    0.156049699931805    0.221807335727665  0.0000
  O      O         0.888947340810798    0.651698700742446    0.258928799196161  0.0000
  O      O         0.929777983975516    0.758317623964868    0.389094950080197  0.0000
  O      O         0.459153240234471    0.815180514505569    0.110001473298065  0.0000
  O      O         0.720634548035920    0.944025139160796    0.655500287670131  0.0000
  Si     Si        0.645804852683973    0.854320956159565    0.250056930439563  0.0000
  Si     Si        0.075973751358204    0.424151831787446    0.750056961110083  0.0000
  Si     Si        0.416532387357633    0.534691260044521    0.853854627433382  0.0000
  Si     Si        0.361112781058920    0.535069648874050    0.812749519707046  0.0000
  Si     Si        0.360704198889453    0.535064751330510    0.742944113373113  0.0000
  Si     Si        0.416417799344457    0.534824814035490    0.701983005852595  0.0000
  Si     Si        0.416408303810902    0.534678038082862    0.632583091466883  0.0000
  Si     Si        0.916611370249576    0.034701101189117    0.576989628644561  0.0000
  Si     Si        0.862250858873619    0.035100878127571    0.534810709080711  0.0000
  Si     Si        0.354680233965120    0.813081873239420    0.694327882573353  0.0000
  Si     Si        0.423751121832369    0.695008073726192    0.743794819601386  0.0000
  Si     Si        0.354591349071139    0.743790884078234    0.694555448723929  0.0000
  Si     Si        0.186659963993824    0.575858241547053    0.694904692740341  0.0000
  Si     Si        0.306347611407179    0.644805501649973    0.965458450772028  0.0000
  Si     Si        0.194243173944119    0.534954128795467    0.924753349691856  0.0000
  Si     Si        0.645708254062936    0.749370907781222    0.923991255582163  0.0000
  O      O         0.389401938147136    0.545656697961851    0.832608095740622  0.0000
  O      O         0.369188121601496    0.540875586554328    0.777794207371122  0.0000
  O      O         0.388827720292416    0.545604927015241    0.722766905483840  0.0000
  O      O         0.406655534150046    0.539599491718751    0.667249966983780  0.0000
  O      O         0.406199340994039    0.538920419722465    0.111612506333881  0.0000
  O      O         0.889729054475461    0.046072027275610    0.555609081676973  0.0000
  O      O         0.389490730618687    0.819362950184200    0.685922293535042  0.0000
  O      O         0.221676820840093    0.650648285943238    0.704348137158436  0.0000
  O      O         0.315490161850801    0.610921226423441    0.738595364669533  0.0000
  O      O         0.429877069761735    0.703656922398326    0.778524679334232  0.0000
  O      O         0.444995247756689    0.176941926556068    0.333064008856724  0.0000
  O      O         0.445160811085562    0.267221217321562    0.332269141536396  0.0000
  O      O         0.222985240429303    0.666528590633706    0.934338391260588  0.0000
  O      O         0.166450468560441    0.455784404261425    0.945593442912898  0.0000
  O      O         0.065547916330764    0.444382479970769    0.778068930355408  0.0000
  O      O         0.333919129470063    0.844240779712405    0.778306412946940  0.0000
  O      O         0.888947350592766    0.348591776605874    0.741184954494215  0.0000
  O      O         0.929777983768189    0.241972851691753    0.611018797653909  0.0000
  O      O         0.459153233202054    0.185109971850377    0.890112262762461  0.0000
  O      O         0.720634518640535    0.056265363068044    0.344613452040131  0.0000
  Si     Si        0.645804855206551    0.145969524544414    0.750056820118597  0.0000
  Si     Si        0.075973755096384    0.576138645353005    0.250056793835127  0.0000
  Si     Si        0.465434594235048    0.416697336309655    0.853854489079165  0.0000
  Si     Si        0.465055969966152    0.361277714600456    0.812749417858806  0.0000
  Si     Si        0.465061060775209    0.360868841007795    0.742944016718753  0.0000
  Si     Si        0.465300787778180    0.416582449699516    0.701982910864019  0.0000
  Si     Si        0.465447771243546    0.416573180884693    0.632582987984677  0.0000
  Si     Si        0.965424757674189    0.916776315714639    0.576989511094531  0.0000
  Si     Si        0.965024714141414    0.862415812248196    0.534810590407744  0.0000
  Si     Si        0.187043932715677    0.354844889100681    0.694327997033039  0.0000
  Si     Si        0.305117507175593    0.423915990700959    0.743794931599932  0.0000
  Si     Si        0.256334927621289    0.354756219126417    0.694555333996692  0.0000
  Si     Si        0.424267371993094    0.186824621789872    0.694904541750045  0.0000
  Si     Si        0.355320349185177    0.306512562421487    0.965458321618410  0.0000
  Si     Si        0.465171441192416    0.194407776453509    0.924753216011261  0.0000
  Si     Si        0.250754634988649    0.645872904499987    0.923991351711181  0.0000
  O      O         0.454469048183263    0.389567053375309    0.832607801235702  0.0000
  O      O         0.459250129989772    0.369352905383770    0.777794059396974  0.0000
  O      O         0.454520781050926    0.388992205061751    0.722766645674418  0.0000
  O      O         0.460526202107089    0.406820330242465    0.667249823176770  0.0000
  O      O         0.461205281158356    0.406364090261873    0.111612301894253  0.0000
  O      O         0.954053702254734    0.889894217117990    0.555608760487234  0.0000
  O      O         0.180762756714238    0.389655337958147    0.685922285667341  0.0000
  O      O         0.349477411989302    0.221841738192605    0.704348122159529  0.0000
  O      O         0.389204642165635    0.315654957596003    0.738595376932183  0.0000
  O      O         0.296468789683618    0.430041849958436    0.778524840198594  0.0000
  O      O         0.823183798209005    0.445159717741125    0.333064339074936  0.0000
  O      O         0.732904519795774    0.445325843508811    0.332268856403652  0.0000
  O      O         0.333596802667938    0.223150368671934    0.934338379112153  0.0000
  O      O         0.544341296921250    0.166615661320552    0.945593780689111  0.0000
  O      O         0.555742903246249    0.065712694507784    0.778068565613143  0.0000
  O      O         0.155884902658199    0.334084146840740    0.778306680288280  0.0000
  O      O         0.651533943539135    0.889111965422113    0.741184927000609  0.0000
  O      O         0.758152871760633    0.929942754345466    0.611018972872852  0.0000
  O      O         0.815015762045727    0.459318027488391    0.890112458812570  0.0000
  O      O         0.943860631814203    0.720799637337517    0.344613431695131  0.0000
  Si     Si        0.854156098610190    0.645969531740851    0.750056928163688  0.0000
  Si     Si        0.423987210093081    0.076138657627254    0.250056951798129  0.0000
  Si     Si        0.583428553583490    0.465599240667763    0.853854620931766  0.0000
  Si     Si        0.638848162827892    0.465220842575499    0.812749517402006  0.0000
  Si     Si        0.639256749753162    0.465225735573148    0.742944111293111  0.0000
  Si     Si        0.583543151289835    0.465465670148252    0.701983001193644  0.0000
  Si     Si        0.583552643313227    0.465612443076068    0.632583086952411  0.0000
  Si     Si        0.083349571013807    0.965589375784229    0.576989628990439  0.0000
  Si     Si        0.137710080831857    0.965189598868257    0.534810708849776  0.0000
  Si     Si        0.645280712807631    0.187208607247952    0.694327886746494  0.0000
  Si     Si        0.576209827526982    0.305282416518532    0.743794813535611  0.0000
  Si     Si        0.645369599385289    0.256499594989505    0.694555453853173  0.0000
  Si     Si        0.813300983971175    0.424432241207984    0.694904692463940  0.0000
  Si     Si        0.693613353711363    0.355484994090269    0.965458428319330  0.0000
  Si     Si        0.805717773609364    0.465336365564452    0.924753346807512  0.0000
  Si     Si        0.354252687676142    0.250919579096767    0.923991241838518  0.0000
  O      O         0.610559001759189    0.454633799275943    0.832608090395967  0.0000
  O      O         0.630772824916895    0.459414903824946    0.777794204986855  0.0000
  O      O         0.611133230524713    0.454685557484811    0.722766901224863  0.0000
  O      O         0.593305416658928    0.460690992325027    0.667249962162716  0.0000
  O      O         0.593761614186855    0.461370081390594    0.111612496531327  0.0000
  O      O         0.110231883275620    0.954218449551278    0.555609078187788  0.0000
  O      O         0.610470214873990    0.180927533481196    0.685922300125677  0.0000
  O      O         0.778284129485140    0.349642196983338    0.704348136884710  0.0000
  O      O         0.684470787119925    0.389369259836285    0.738595367525349  0.0000
  O      O         0.570083884069356    0.296633571756918    0.778524674017397  0.0000
  O      O         0.554965697349695    0.823348562253345    0.333063994068496  0.0000
  O      O         0.554800125220196    0.733069272788026    0.332269153353116  0.0000
  O      O         0.776975734830123    0.333761916576347    0.934338384447736  0.0000
  O      O         0.833510484555605    0.544506088175264    0.945593440160678  0.0000
  O      O         0.934413030652931    0.555908001402032    0.778068930562584  0.0000
  O      O         0.666041825454372    0.156049688452084    0.778306409888488  0.0000
  O      O         0.111013601075187    0.651698706714974    0.741184956588970  0.0000
  O      O         0.070182959859410    0.758317626922948    0.611018796188151  0.0000
  O      O         0.540807707944148    0.815180522356015    0.890112278501064  0.0000
  O      O         0.279326399860749    0.944025146789113    0.344613454705503  0.0000
  Si     Si        0.354156094116525    0.854320948184828    0.750056820823585  0.0000
  Si     Si        0.923987185923591    0.424151828706082    0.250056789642371  0.0000
  Si     Si        0.534526345826507    0.583593163550403    0.853854501185745  0.0000
  Si     Si        0.534904973540877    0.639012774758520    0.812749417191367  0.0000
  Si     Si        0.534899887609123    0.639421642483965    0.742944017528525  0.0000
  Si     Si        0.534660160739800    0.583708034575764    0.701982909729239  0.0000
  Si     Si        0.534513175077281    0.583717300388842    0.632582986839220  0.0000
  Si     Si        0.034536184733348    0.083514159424360    0.576989509421017  0.0000
  Si     Si        0.034936229672117    0.137874664506484    0.534810590472245  0.0000
  Si     Si        0.812917014458460    0.645445591321185    0.694327996532969  0.0000
  Si     Si        0.694843442231751    0.576374493180540    0.743794933914339  0.0000
  Si     Si        0.743626019801305    0.645534262617997    0.694555334959858  0.0000
  Si     Si        0.575693574036867    0.813465857524713    0.694904538284018  0.0000
  Si     Si        0.644640596730992    0.693777935176501    0.965458352384379  0.0000
  Si     Si        0.534789496589957    0.805882709248756    0.924753229959350  0.0000
  Si     Si        0.749206336294225    0.354417596807169    0.923991344671909  0.0000
  O      O         0.545491893426770    0.610723442057297    0.832607809668723  0.0000
  O      O         0.540710816746176    0.630937576035740    0.777794060452119  0.0000
  O      O         0.545440167410020    0.611298279163568    0.722766644911200  0.0000
  O      O         0.539434745181608    0.593470153185122    0.667249821602357  0.0000
  O      O         0.538755626582308    0.593926384982798    0.111612311434586  0.0000
  O      O         0.045907240211162    0.110396257754235    0.555608758677427  0.0000
  O      O         0.819198189324166    0.610635142349787    0.685922285930632  0.0000
  O      O         0.650483534446694    0.778448741630576    0.704348117197698  0.0000
  O      O         0.610756306585273    0.684635527631993    0.738595383359863  0.0000
  O      O         0.703492159935845    0.570248632138534    0.778524842504599  0.0000
  O      O         0.176777140039358    0.555130753215598    0.333064341503003  0.0000
  O      O         0.267056419329920    0.554964636046112    0.332268866131797  0.0000
  O      O         0.666364138053423    0.777140121611661    0.934338385085536  0.0000
  O      O         0.455619651547994    0.833674843364812    0.945593795956641  0.0000
  O      O         0.444218043758981    0.934577777066545    0.778068569569396  0.0000
  O      O         0.844076043227268    0.666206331138602    0.778306680166211  0.0000
  O      O         0.348427003212601    0.111178509229845    0.741184923182021  0.0000
  O      O         0.241808077987493    0.070347722041433    0.611018972580850  0.0000
  O      O         0.184945180413548    0.540972459631604    0.890112461686277  0.0000
  O      O         0.056100311402835    0.279490841372625    0.344613434524852  0.0000
  Si     Si        0.145804849701866    0.354320949347870    0.750056929766590  0.0000
  Si     Si        0.575973749656724    0.924151829584912    0.250056965653356  0.0000
  Si     Si        0.583428577081316    0.534691278298415    0.146259092688124  0.0000
  Si     Si        0.638848168681382    0.535069634090531    0.187364214897272  0.0000
  Si     Si        0.639256735674145    0.535064741605345    0.257169618646856  0.0000
  Si     Si        0.583543144442893    0.534824808192104    0.298130743959853  0.0000
  Si     Si        0.583552646876892    0.534678042285111    0.367530654890289  0.0000
  Si     Si        0.083349572640262    0.034701103937148    0.423124114489490  0.0000
  Si     Si        0.137710085720470    0.035100878553253    0.465303032080512  0.0000
  Si     Si        0.645280709581956    0.813081870691307    0.305785860640273  0.0000
  Si     Si        0.576209820488751    0.695008067106540    0.256318933316470  0.0000
  Si     Si        0.645369597532726    0.743790882433634    0.305558296692766  0.0000
  Si     Si        0.813300974234264    0.575858235261448    0.305209055330393  0.0000
  Si     Si        0.693613323132474    0.644805489621737    0.034655303639223  0.0000
  Si     Si        0.805717770534114    0.534954131247705    0.075360392782009  0.0000
  Si     Si        0.354252695991928    0.749370910457036    0.076122501066173  0.0000
  O      O         0.610559035213121    0.545656708703318    0.167505618503146  0.0000
  O      O         0.630772815617839    0.540875582285866    0.222319524062449  0.0000
  O      O         0.611133214441015    0.545604914232970    0.277346828447946  0.0000
  O      O         0.593305421495347    0.539599495109465    0.332863779464761  0.0000
  O      O         0.593761610850417    0.538920439474466    0.888501216034568  0.0000
  O      O         0.110231889686406    0.046072028867770    0.444504660668197  0.0000
  O      O         0.610470211990981    0.819362947367531    0.314191444937536  0.0000
  O      O         0.778284120314828    0.650648281138771    0.295765614179663  0.0000
  O      O         0.684470775458120    0.610921216449564    0.261518393202108  0.0000
  O      O         0.570083874958980    0.703656920860383    0.221589074624476  0.0000
  O      O         0.554965699248140    0.176941917326606    0.667049753624406  0.0000
  O      O         0.554800125834690    0.267221205145698    0.667844600508073  0.0000
  O      O         0.776975696548117    0.666528590230320    0.065775361509617  0.0000
  O      O         0.833510461458793    0.455784399539243    0.054520298821068  0.0000
  O      O         0.934413014752958    0.444382470084796    0.222044813813606  0.0000
  O      O         0.666041819614870    0.844240793841514    0.221807338157810  0.0000
  O      O         0.111013601896219    0.348591773347085    0.258928798644996  0.0000
  O      O         0.070182963977147    0.241972852721365    0.389094951543769  0.0000
  O      O         0.540807604349021    0.185109896478150    0.110001418468012  0.0000
  O      O         0.279326398590426    0.056265333755084    0.655500288527228  0.0000
  Si     Si        0.354156101134636    0.145969533726783    0.250056925006038  0.0000
  Si     Si        0.923987196227166    0.576138647271834    0.750056959573191  0.0000
  Si     Si        0.465434604121705    0.583593149231092    0.146259236371722  0.0000
  Si     Si        0.465055964522089    0.639012759780979    0.187364329169448  0.0000
  Si     Si        0.465061055360878    0.639421632120729    0.257169727732867  0.0000
  Si     Si        0.465300785245659    0.583708031535318    0.298130842664680  0.0000
  Si     Si        0.465447769265154    0.583717297784037    0.367530764484611  0.0000
  Si     Si        0.965424756947823    0.083514162172484    0.423124233624175  0.0000
  Si     Si        0.965024712666257    0.137874666871951    0.465303153861943  0.0000
  Si     Si        0.187043936617737    0.645445587407006    0.305785756157487  0.0000
  Si     Si        0.305117511070880    0.576374491328915    0.256318816406896  0.0000
  Si     Si        0.256334931384127    0.645534259021157    0.305558419277887  0.0000
  Si     Si        0.424267377332700    0.813465854767255    0.305209206143783  0.0000
  Si     Si        0.355320344278070    0.693777941733737    0.034655401292770  0.0000
  Si     Si        0.465171450847336    0.805882702189013    0.075360521232965  0.0000
  Si     Si        0.250754640926212    0.354417582514386    0.076122392688234  0.0000
  O      O         0.454469055816450    0.610723422524204    0.167505935312187  0.0000
  O      O         0.459250120857435    0.630937560836420    0.222319686303217  0.0000
  O      O         0.454520774751105    0.611298272874382    0.277347105570236  0.0000
  O      O         0.460526200355578    0.593470152847503    0.332863930207511  0.0000
  O      O         0.461205321029298    0.593926378113322    0.888501423903767  0.0000
  O      O         0.954053702730275    0.110396261078218    0.444504984253687  0.0000
  O      O         0.180762761496365    0.610635138119537    0.314191465618178  0.0000
  O      O         0.349477417160301    0.778448739787639    0.295765631481227  0.0000
  O      O         0.389204642657040    0.684635525323396    0.261518367036406  0.0000
  O      O         0.296468790857125    0.570248632109387    0.221588907975293  0.0000
  O      O         0.823183809818617    0.555130758228806    0.667049404359965  0.0000
  O      O         0.732904529069487    0.554964640293891    0.667844887580179  0.0000
  O      O         0.333596816271216    0.777140126630189    0.065775370348823  0.0000
  O      O         0.544341293392713    0.833674835327291    0.054519948265671  0.0000
  O      O         0.555742899072501    0.934577780958340    0.222045186147071  0.0000
  O      O         0.155884903917221    0.666206330983867    0.221807074534988  0.0000
  O      O         0.651533930763248    0.111178540719501    0.258928811931642  0.0000
  O      O         0.758152860369961    0.070347732475553    0.389094759931504  0.0000
  O      O         0.815015772864465    0.540972467343039    0.110001277830453  0.0000
  O      O         0.943860632215373    0.279490840875498    0.655500315870136  0.0000
  Si     Si        0.854156087453142    0.354320949519382    0.250056814011614  0.0000
  Si     Si        0.423987190565192    0.924151830867397    0.750056789005389  0.0000
  Si     Si        0.534526317837035    0.416697381278258    0.146259221203680  0.0000
  Si     Si        0.534904974324939    0.361277808955213    0.187364354059851  0.0000
  Si     Si        0.534899880346244    0.360868850911001    0.257169744627874  0.0000
  Si     Si        0.534660153159831    0.416582443866413    0.298130863544586  0.0000
  Si     Si        0.534513162574091    0.416573199274825    0.367530787043490  0.0000
  Si     Si        0.034536183660762    0.916776320981917    0.423124235919651  0.0000
  Si     Si        0.034936228905272    0.862415813352306    0.465303152270452  0.0000
  Si     Si        0.812916998304544    0.354844887596927    0.305785742775743  0.0000
  Si     Si        0.694843428058598    0.423915987787566    0.256318802535708  0.0000
  Si     Si        0.743626003548085    0.354756220783194    0.305558410559392  0.0000
  Si     Si        0.575693567921967    0.186824638582655    0.305209225254587  0.0000
  Si     Si        0.644640588985492    0.306512552322301    0.034655342440460  0.0000
  Si     Si        0.534789436467560    0.194407779837640    0.075360471477338  0.0000
  Si     Si        0.749206302217876    0.645872902500313    0.076122400432654  0.0000
  O      O         0.545491869437244    0.389567161130905    0.167505979293756  0.0000
  O      O         0.540710791818566    0.369352996892636    0.222319716671477  0.0000
  O      O         0.545440167738669    0.388992176975393    0.277347164621077  0.0000
  O      O         0.539434731805926    0.406820344801014    0.332863955198694  0.0000
  O      O         0.538755609218202    0.406364138565189    0.888501421728205  0.0000
  O      O         0.045907239019447    0.889894220253756    0.444504983951892  0.0000
  O      O         0.819198173297607    0.389655336595896    0.314191453486165  0.0000
  O      O         0.650483520786510    0.221841755498555    0.295765633556017  0.0000
  O      O         0.610756298766493    0.315654933500306    0.261518294594815  0.0000
  O      O         0.703492145080678    0.430041845102723    0.221588892717704  0.0000
  O      O         0.176777136327207    0.445159724249234    0.667049408971103  0.0000
  O      O         0.267056416060256    0.445325841938026    0.667844889014388  0.0000
  O      O         0.666364133435274    0.223150358219750    0.065775318741127  0.0000
  O      O         0.455619623918200    0.166615648369822    0.054519867535468  0.0000
  O      O         0.444218087717331    0.065712706923852    0.222045187394938  0.0000
  O      O         0.844076036575973    0.334084155177932    0.221807056280785  0.0000
  O      O         0.348427009385779    0.889111966775466    0.258928826646809  0.0000
  O      O         0.241808082004782    0.929942755513033    0.389094774064212  0.0000
  O      O         0.184945168558759    0.459318027706248    0.110001282041203  0.0000
  O      O         0.056100314497885    0.720799635494195    0.655500313019725  0.0000
  Si     Si        0.145804850641729    0.645969529269650    0.250056825497350  0.0000
  Si     Si        0.575973756240966    0.076138644067592    0.750056786459627  0.0000
  Si     Si        0.353778101812904    0.083593158291558    0.034602736837084  0.0000
  Si     Si        0.312673019570837    0.139012772509380    0.034981373828201  0.0000
  Si     Si        0.242867618334170    0.139421636626117    0.034976285946481  0.0000
  Si     Si        0.201906510177462    0.083708030441263    0.034736560505831  0.0000
  Si     Si        0.132506587644985    0.083717298817918    0.034589576864134  0.0000
  Si     Si        0.076913110026239    0.583514168788297    0.534612589092235  0.0000
  Si     Si        0.034734192072470    0.637874673510004    0.535012631708684  0.0000
  Si     Si        0.194251599714873    0.145445588927104    0.312993409336820  0.0000
  Si     Si        0.243718544361764    0.076374493549511    0.194919837660100  0.0000
  Si     Si        0.194478938476978    0.145534260197558    0.243702415310791  0.0000
  Si     Si        0.194828136620235    0.313465858213991    0.075769975780134  0.0000
  Si     Si        0.465381828435406    0.193777913582038    0.144716929433784  0.0000
  Si     Si        0.424676815606602    0.305882726478098    0.034865869502981  0.0000
  Si     Si        0.423914958015412    0.854417581545732    0.249282704910474  0.0000
  O      O         0.332531413747237    0.110723438183549    0.045568290359579  0.0000
  O      O         0.277717662270301    0.130937575087454    0.040787218483224  0.0000
  O      O         0.222690249517768    0.111298271604891    0.045516567674992  0.0000
  O      O         0.167173422666127    0.093470152197547    0.039511146567934  0.0000
  O      O         0.611535920477820    0.093926394841841    0.038832014379102  0.0000
  O      O         0.055532361580912    0.610396268850097    0.545983645845538  0.0000
  O      O         0.185845890196097    0.110635139757315    0.319274583529708  0.0000
  O      O         0.204271713871298    0.278448737873572    0.150559933484512  0.0000
  O      O         0.238518966164402    0.184635519509237    0.110832699819029  0.0000
  O      O         0.278448455832951    0.070248639839612    0.203568552941132  0.0000
  O      O         0.832987936779635    0.055130749626933    0.676853544974600  0.0000
  O      O         0.832192459625662    0.054964631100290    0.767132821924552  0.0000
  O      O         0.434261972453285    0.277140125436639    0.166440511199720  0.0000
  O      O         0.445517406934572    0.333674851029947    0.955696023970301  0.0000
  O      O         0.277992141583500    0.434577788115571    0.944294438206324  0.0000
  O      O         0.278230282610996    0.166206329141412    0.344152442719685  0.0000
  O      O         0.241108517584470    0.611178515440403    0.848503405913128  0.0000
  O      O         0.110942566751726    0.570347731850882    0.741884477164423  0.0000
  O      O         0.390036065631512    0.040972451419330    0.685021591600814  0.0000
  O      O         0.844537029042439    0.779490850038168    0.556176712072088  0.0000
  O      O         0.318695407031764    0.853158244957755    0.000056802615258  0.0000
  O      O         0.429950752938590    0.296632156713011    0.000056948372939  0.0000
  O      O         0.346837092881757    0.074859973591702    0.000056762296075  0.0000
  O      O         0.236861710077399    0.147563955096711    0.000056801765669  0.0000
  O      O         0.208596860294405    0.075153204805359    0.000056954814799  0.0000
  O      O         0.126749650501705    0.073775122691161    0.000056803901950  0.0000
  O      O         0.069785035607923    0.575111752151723    0.500056770335300  0.0000
  O      O         0.040611689522718    0.645757304464660    0.500056961753277  0.0000
  O      O         0.350624299083922    0.000145313654642    0.704105164728402  0.0000
  O      O         0.069479196814561    0.553807241129836    0.553718872003609  0.0000
  O      O         0.346070393187018    0.054171798254622    0.054083419135802  0.0000
  O      O         0.210167290045915    0.054379556936027    0.054291197355170  0.0000
  O      O         0.123517776170399    0.055273885841557    0.055185522291705  0.0000
  O      O         0.234594344466143    0.166196291054387    0.166107927127625  0.0000
  O      O         0.835899254995109    0.836064028677070    0.542389751147865  0.0000
  O      O         0.164758848783067    0.164923613923314    0.321149166348718  0.0000
  O      O         0.224448734411116    0.224613506120283    0.068380749105497  0.0000
  O      O         0.112271918273307    0.112436681552981    0.043664050127176  0.0000
  O      O         0.223122137417563    0.154326777104515    0.223198536488388  0.0000
  O      O         0.999980381509174    0.628886150520990    0.540868466741211  0.0000
  Si     Si        0.916532396718978    0.353942999588064    0.034602887504238  0.0000
  Si     Si        0.861112789362041    0.312837890117819    0.034981265560271  0.0000
  Si     Si        0.860704203401385    0.243032485179950    0.034976380793361  0.0000
  Si     Si        0.916417800369600    0.202071368696120    0.034736445120318  0.0000
  Si     Si        0.916408309058412    0.132671454461267    0.034589671124991  0.0000
  Si     Si        0.416611382629072    0.077077994551681    0.534612735835107  0.0000
  Si     Si        0.362250866638885    0.034899078385334    0.535012505736880  0.0000
  Si     Si        0.854680226869262    0.194416248625238    0.312993500552267  0.0000
  Si     Si        0.923751111401759    0.243883181976910    0.194919698772980  0.0000
  Si     Si        0.854591337740738    0.194643821496880    0.243702512848414  0.0000
  Si     Si        0.686659963859023    0.194993070742894    0.075769839321523  0.0000
  Si     Si        0.806347620075665    0.465546820212664    0.144717124746638  0.0000
  Si     Si        0.694243179644333    0.424841727606086    0.034865742035980  0.0000
  Si     Si        0.145708247066564    0.424079618415101    0.249282551884174  0.0000
  O      O         0.889401941268685    0.332696471285261    0.045568318369452  0.0000
  O      O         0.869188130942032    0.277882579167138    0.040787214338757  0.0000
  O      O         0.888827721798861    0.222855271598159    0.045516554018025  0.0000
  O      O         0.906655534485931    0.167338329560287    0.039511123409140  0.0000
  O      O         0.906199350971402    0.611700873705444    0.038832049673039  0.0000
  O      O         0.389729064692420    0.055697446863404    0.545983654218431  0.0000
  O      O         0.889490723089540    0.186010658524175    0.319274577688936  0.0000
  O      O         0.721676766642500    0.204436564023490    0.150559911453054  0.0000
  O      O         0.815490148939369    0.238683733218542    0.110832858184300  0.0000
  O      O         0.929877064401039    0.278613039391810    0.203568553585021  0.0000
  O      O         0.944995241704452    0.833152378306230    0.676853553452844  0.0000
  O      O         0.945160827172008    0.832357508466110    0.767132840130263  0.0000
  O      O         0.722985226704465    0.434426765905970    0.166440208064950  0.0000
  O      O         0.666450474378641    0.445681807592728    0.955696010453352  0.0000
  O      O         0.565547918562034    0.278157380401135    0.944294002720045  0.0000
  O      O         0.833919120360687    0.278394773561530    0.344152418863585  0.0000
  O      O         0.388947336974332    0.241273320781022    0.848503395590988  0.0000
  O      O         0.429777981519911    0.111107157443698    0.741884490217082  0.0000
  O      O         0.959153235622540    0.390200643356874    0.685021587369745  0.0000
  O      O         0.220634554531706    0.844701824392313    0.556176969260080  0.0000
  O      O         0.146967467834188    0.318860175691371    0.000056951194362  0.0000
  O      O         0.703493572249708    0.430115557376623    0.000056758696992  0.0000
  O      O         0.925265757780850    0.347001866711922    0.000056978181140  0.0000
  O      O         0.852561747514701    0.237026475178150    0.000056943409748  0.0000
  O      O         0.924972500450445    0.208761624506934    0.000056792837834  0.0000
  O      O         0.926350593031319    0.126914408728336    0.000056946390362  0.0000
  O      O         0.425013981465558    0.069949802600505    0.500056981018695  0.0000
  O      O         0.354368411638683    0.040776460133936    0.500056778471689  0.0000
  O      O         0.999980552320596    0.350789065569916    0.704105156760315  0.0000
  O      O         0.446318125062996    0.069643905844093    0.553719228778887  0.0000
  O      O         0.945953587201593    0.346235169386780    0.054083766949742  0.0000
  O      O         0.945746413256384    0.210332018904976    0.054290931973822  0.0000
  O      O         0.944851618208056    0.123682598875255    0.055185734525740  0.0000
  O      O         0.833929167922671    0.234759174630632    0.166108153812785  0.0000
  O      O         0.164061397302036    0.836064320459275    0.542389723906982  0.0000
  O      O         0.835202336419620    0.164923369021733    0.321149131846559  0.0000
  O      O         0.775512462799119    0.224613248596432    0.068380704753286  0.0000
  O      O         0.887688830406979    0.112436886004706    0.043664077885888  0.0000
  O      O         0.845798887751970    0.223287127589305    0.223198750023644  0.0000
  O      O         0.371239566617217    0.000145331540435    0.540868458062777  0.0000
  Si     Si        0.646182835361547    0.916697321320358    0.034602754440100  0.0000
  Si     Si        0.687287922772597    0.861277709373612    0.034981381927038  0.0000
  Si     Si        0.757093323037777    0.860868840441241    0.034976293131412  0.0000
  Si     Si        0.798054434188209    0.916582444315923    0.034736568416258  0.0000
  Si     Si        0.867454356827843    0.916573179484032    0.034589582440098  0.0000
  Si     Si        0.923047836693781    0.416776309610774    0.534612588462287  0.0000
  Si     Si        0.965226753040032    0.362415803315356    0.535012633917545  0.0000
  Si     Si        0.805709341304384    0.854844896422834    0.312993407928486  0.0000
  Si     Si        0.756242403260856    0.923915997055393    0.194919832803305  0.0000
  Si     Si        0.805482007382179    0.854756226247500    0.243702413197452  0.0000
  Si     Si        0.805132807711278    0.686824623035739    0.075769979947228  0.0000
  Si     Si        0.534579000090847    0.806512541988121    0.144716996144572  0.0000
  Si     Si        0.575284117928557    0.694407769954584    0.034865897345459  0.0000
  Si     Si        0.576045964069481    0.145872919396250    0.249282723136846  0.0000
  O      O         0.667429528273217    0.889567042279142    0.045568300969628  0.0000
  O      O         0.722243280146045    0.869352908156967    0.040787224955532  0.0000
  O      O         0.777270697386377    0.888992201376238    0.045516576009819  0.0000
  O      O         0.832787522392381    0.906820324437207    0.039511153005892  0.0000
  O      O         0.388425029546112    0.906364099984369    0.038832037974346  0.0000
  O      O         0.944428584788041    0.389894209728058    0.545983645984663  0.0000
  O      O         0.814115053298451    0.889655345449729    0.319274581479837  0.0000
  O      O         0.795689228350362    0.721841743514740    0.150559936126726  0.0000
  O      O         0.761441962013818    0.815654952121383    0.110832705304055  0.0000
  O      O         0.721512493283324    0.930041846990616    0.203568553071107  0.0000
  O      O         0.166973011189574    0.945159724237606    0.676853546284407  0.0000
  O      O         0.167768486064727    0.945325837348389    0.767132822863224  0.0000
  O      O         0.565698964783556    0.723150360957587    0.166440542392902  0.0000
  O      O         0.554443546143978    0.666615642267808    0.955696054998569  0.0000
  O      O         0.721968805418679    0.565712702741140    0.944294450256488  0.0000
  O      O         0.721730655982048    0.834084157599020    0.344152439635663  0.0000
  O      O         0.758852436071487    0.389111977228688    0.848503392591129  0.0000
  O      O         0.889018382357403    0.429942748211776    0.741884479120743  0.0000
  O      O         0.609924881603460    0.959318020540944    0.685021595332654  0.0000
  O      O         0.155423915401207    0.220799625700561    0.556176715925565  0.0000
  O      O         0.681265538968975    0.147132225349037    0.000056784090491  0.0000
  O      O         0.570010180400935    0.703658349500174    0.000056977455186  0.0000
  O      O         0.653123841572014    0.925430509754646    0.000056779958005  0.0000
  O      O         0.763099232275832    0.852726522347826    0.000056808801533  0.0000
  O      O         0.791364083870423    0.925137270162713    0.000056962909633  0.0000
  O      O         0.873211294232430    0.926515355057649    0.000056809223551  0.0000
  O      O         0.930175910728830    0.425178726018999    0.500056769352768  0.0000
  O      O         0.959349254323763    0.354533170264717    0.500056964523893  0.0000
  O      O         0.649336648333789    0.000145159080768    0.704105165539205  0.0000
  O      O         0.930481750347653    0.446483236652854    0.553718872465457  0.0000
  O      O         0.653890543180396    0.946118680356956    0.054083437925089  0.0000
  O      O         0.789793650488293    0.945910916906833    0.054291204691727  0.0000
  O      O         0.876443164208057    0.945016593860976    0.055185527732294  0.0000
  O      O         0.765366593377271    0.834094192857898    0.166107926287698  0.0000
  O      O         0.164061688253110    0.164226447512869    0.542389753949664  0.0000
  O      O         0.835202088507332    0.835366867168062    0.321149170258355  0.0000
  O      O         0.775512205736767    0.775676970993243    0.068380752466303  0.0000
  O      O         0.887689028755180    0.887853798663739    0.043664056317566  0.0000
  O      O         0.776838808579138    0.845963716027156    0.223198531287593  0.0000
  O      O         0.999980563984176    0.371404325327865    0.540868468102258  0.0000
  Si     Si        0.083428545606608    0.646347482003450    0.034602889268947  0.0000
  Si     Si        0.138848154316159    0.687452589858450    0.034981282276613  0.0000
  Si     Si        0.139256739554044    0.757257995464669    0.034976386846987  0.0000
  Si     Si        0.083543141894632    0.798219109003532    0.034736453368519  0.0000
  Si     Si        0.083552639750385    0.867619023747002    0.034589678701016  0.0000
  Si     Si        0.583349566968184    0.923212483718197    0.534612734961304  0.0000
  Si     Si        0.637710082218730    0.965391399268142    0.535012507748034  0.0000
  Si     Si        0.145280713565715    0.805874234445221    0.312993511027397  0.0000
  Si     Si        0.076209819884320    0.756407295156429    0.194919716188639  0.0000
  Si     Si        0.145369596480975    0.805646667907833    0.243702521948121  0.0000
  Si     Si        0.313300974764217    0.805297414691728    0.075769875883810  0.0000
  Si     Si        0.193613318244427    0.534743665754023    0.144717131412124  0.0000
  Si     Si        0.305717756601416    0.575448763293364    0.034865759171704  0.0000
  Si     Si        0.854252696639175    0.576210857880590    0.249282550658586  0.0000
  O      O         0.110558997003126    0.667594011440158    0.045568326331242  0.0000
  O      O         0.130772813087753    0.722407902038068    0.040787222960057  0.0000
  O      O         0.111133220833028    0.777435207088343    0.045516561742118  0.0000
  O      O         0.093305408788171    0.832952147647854    0.039511131781160  0.0000
  O      O         0.093761594508500    0.388589607592736    0.038832046932827  0.0000
  O      O         0.610231886528913    0.944593027663094    0.545983656453526  0.0000
  O      O         0.110470217556527    0.814279826106342    0.319274589312291  0.0000
  O      O         0.278284123992665    0.795853972262009    0.150559923196210  0.0000
  O      O         0.184470777878658    0.761606751083805    0.110832863753267  0.0000
  O      O         0.070083871170763    0.721677435249060    0.203568565175108  0.0000
  O      O         0.054965703886840    0.167138097410863    0.676853551586916  0.0000
  O      O         0.054800120842777    0.167932961748299    0.767132840213531  0.0000
  O      O         0.276975695279121    0.565863722223957    0.166440229245712  0.0000
  O      O         0.333510458654458    0.554608684232970    0.955696029023472  0.0000
  O      O         0.434413018251064    0.722133171356213    0.944294111982635  0.0000
  O      O         0.166041815366586    0.721895702016593    0.344152421621082  0.0000
  O      O         0.611013607993748    0.759017158241615    0.848503414971734  0.0000
  O      O         0.570182963007001    0.889183316623382    0.741884498361962  0.0000
  O      O         0.040807712044020    0.610089836471167    0.685021587928746  0.0000
  O      O         0.779326395666905    0.155588652639147    0.556176974767350  0.0000
  O      O         0.852993478617996    0.681430304175669    0.000056955854141  0.0000
  O      O         0.296467359383465    0.570174943772550    0.000056775032522  0.0000
  O      O         0.074695191012171    0.653288617583433    0.000056978843191  0.0000
  O      O         0.147399193812263    0.763264005857258    0.000056949429260  0.0000
  O      O         0.074988439566745    0.791528852383709    0.000056801727100  0.0000
  O      O         0.073610353763690    0.873376066835238    0.000056953345187  0.0000
  O      O         0.574946976432587    0.930340680520055    0.500056979719983  0.0000
  O      O         0.645592540297760    0.959514022397224    0.500056780419399  0.0000
  O      O         0.999980397446018    0.649501415454726    0.704105158844703  0.0000
  O      O         0.553642822959518    0.930646573666426    0.553719225772393  0.0000
  O      O         0.054007351365966    0.654055307359682    0.054083764950309  0.0000
  O      O         0.054214530706195    0.789958458430143    0.054290942290967  0.0000
  O      O         0.055109337073546    0.876607886307882    0.055185748057060  0.0000
  O      O         0.166031746824117    0.765531308192763    0.166108155495670  0.0000
  O      O         0.835899550779428    0.164226153786009    0.542389720908004  0.0000
  O      O         0.164758608772715    0.835367109126012    0.321149149658373  0.0000
  O      O         0.224448478638344    0.775677232119869    0.068380720450704  0.0000
  O      O         0.112272121961412    0.887853588979678    0.043664080170533  0.0000
  O      O         0.154162054679150    0.777003365676908    0.223198756797820  0.0000
  O      O         0.628721378847099    0.000145145052285    0.540868460854259  0.0000
  Si     Si        0.353778107148543    0.916697320424083    0.965511007186652  0.0000
  Si     Si        0.312673018418207    0.861277710649281    0.965132377254313  0.0000
  Si     Si        0.242867618593011    0.860868838598199    0.965137465391026  0.0000
  Si     Si        0.201906507254298    0.916582442945741    0.965377194709642  0.0000
  Si     Si        0.132506584781780    0.916573178119151    0.965524179858989  0.0000
  Si     Si        0.076913108181121    0.416776307848848    0.465501162288602  0.0000
  Si     Si        0.034734190593325    0.362415802967509    0.465101117566408  0.0000
  Si     Si        0.194251599153158    0.854844891114887    0.687120338813624  0.0000
  Si     Si        0.243718534500500    0.923915985142823    0.805193916352128  0.0000
  Si     Si        0.194478936946843    0.854756216978312    0.756411332067823  0.0000
  Si     Si        0.194828129649848    0.686824624974950    0.924343776195910  0.0000
  Si     Si        0.465381951577070    0.806512534879466    0.855396752351269  0.0000
  Si     Si        0.424676821907908    0.694407767997967    0.965247854010594  0.0000
  Si     Si        0.423914949768831    0.145872895585540    0.750831042377409  0.0000
  O      O         0.332531412035230    0.889567044038408    0.954545459471582  0.0000
  O      O         0.277717660952961    0.869352908735540    0.959326534880305  0.0000
  O      O         0.222690243300891    0.888992200048683    0.954597185959828  0.0000
  O      O         0.167173419169564    0.906820323036599    0.960602609731104  0.0000
  O      O         0.611535915317510    0.906364099924460    0.961281724652293  0.0000
  O      O         0.055532359431875    0.389894208524104    0.454130104457545  0.0000
  O      O         0.185845891602876    0.889655341037963    0.680839166264824  0.0000
  O      O         0.204271710392244    0.721841739478104    0.849553819867531  0.0000
  O      O         0.238518982040848    0.815654953070449    0.889281046783833  0.0000
  O      O         0.278448443212341    0.930041846208782    0.796545198519658  0.0000
  O      O         0.832987931428380    0.945159729171627    0.323260202196894  0.0000
  O      O         0.832192448812574    0.945325850712660    0.232980921584804  0.0000
  O      O         0.434261978594045    0.723150350632680    0.833673217184553  0.0000
  O      O         0.445517386512652    0.666615626727779    0.044417693771373  0.0000
  O      O         0.277992163509612    0.565712699874749    0.055819309765550  0.0000
  O      O         0.278230280645361    0.834084150809756    0.655961304376697  0.0000
  O      O         0.241108519322430    0.389111963230117    0.151610338496571  0.0000
  O      O         0.110942570463118    0.429942752251643    0.258229274207709  0.0000
  O      O         0.390036071740790    0.959318037380430    0.315092156146253  0.0000
  O      O         0.844537026546553    0.220799631047390    0.443937033619407  0.0000
  O      O         0.318695407092597    0.147132236196978    0.000056947648990  0.0000
  O      O         0.429950766656443    0.703658340347030    0.000056774545247  0.0000
  O      O         0.346837102246171    0.925430511362966    0.000056981530732  0.0000
  O      O         0.236861710803997    0.852726516800516    0.000056949445409  0.0000
  O      O         0.208596858615614    0.925137268330560    0.000056800147575  0.0000
  O      O         0.126749648286057    0.926515354969900    0.000056952796892  0.0000
  O      O         0.069785033375984    0.425178723899692    0.500056980995107  0.0000
  O      O         0.040611689633405    0.354533170568823    0.500056787238486  0.0000
  O      O         0.350624296283601    0.000145163595820    0.296008576278453  0.0000
  O      O         0.069479195352834    0.446483236148891    0.446394880339104  0.0000
  O      O         0.346070400470600    0.946118677755388    0.946030320597306  0.0000
  O      O         0.210167288912993    0.945910916653230    0.945822558987606  0.0000
  O      O         0.123517775143940    0.945016590757835    0.944928233404317  0.0000
  O      O         0.234594352344247    0.834094181823490    0.834005819818180  0.0000
  O      O         0.835899251725321    0.164226452709318    0.457723992991382  0.0000
  O      O         0.164758846153308    0.835366868119200    0.678964583705163  0.0000
  O      O         0.224448738466792    0.775676971599028    0.931732999061644  0.0000
  O      O         0.112271913511493    0.887853796636316    0.956449707278032  0.0000
  O      O         0.223122134089414    0.845963700705417    0.776915213543727  0.0000
  O      O         0.999980379632204    0.371404325632726    0.459245283889412  0.0000
  Si     Si        0.083428552281682    0.353943006071073    0.965510865006569  0.0000
  Si     Si        0.138848158811589    0.312837894351964    0.965132472567039  0.0000
  Si     Si        0.139256735368683    0.243032489422031    0.965137366830050  0.0000
  Si     Si        0.083543142427935    0.202071369870809    0.965377304054854  0.0000
  Si     Si        0.083552644960077    0.132671456319890    0.965524078928660  0.0000
  Si     Si        0.583349562704281    0.077078001153466    0.465501002059467  0.0000
  Si     Si        0.637710080530800    0.034899084103434    0.465101237622553  0.0000
  Si     Si        0.145280712875188    0.194416242288049    0.687120242408081  0.0000
  Si     Si        0.076209818222402    0.243883180797266    0.805194038662118  0.0000
  Si     Si        0.145369595782844    0.194643809436249    0.756411230733250  0.0000
  Si     Si        0.313300970700277    0.194993072061497    0.924343875214126  0.0000
  Si     Si        0.193613312261093    0.465546815246703    0.855396616266686  0.0000
  Si     Si        0.305717741482640    0.424841737133338    0.965247984147308  0.0000
  Si     Si        0.854252704714714    0.424079618194958    0.750831198480532  0.0000
  O      O         0.110559005223511    0.332696478298553    0.954545429054126  0.0000
  O      O         0.130772811608332    0.277882583466508    0.959326529715884  0.0000
  O      O         0.111133215767837    0.222855278020904    0.954597193451962  0.0000
  O      O         0.093305414759188    0.167338332425196    0.960602624828865  0.0000
  O      O         0.093761592682194    0.611700881518589    0.961281710664155  0.0000
  O      O         0.610231885186958    0.055697455931276    0.454130090428430  0.0000
  O      O         0.110470216628842    0.186010652123642    0.680839165487556  0.0000
  O      O         0.278284117366781    0.204436501488179    0.849553830485041  0.0000
  O      O         0.184470773298956    0.238683725722803    0.889280890120006  0.0000
  O      O         0.070083868893697    0.278613040523826    0.796545189470050  0.0000
  O      O         0.054965702316181    0.833152378531296    0.323260202548736  0.0000
  O      O         0.054800120548857    0.832357514444771    0.232980910299259  0.0000
  O      O         0.276975686506477    0.434426758893696    0.833673517528298  0.0000
  O      O         0.333510449932411    0.445681829682434    0.044417704111110  0.0000
  O      O         0.434413004635735    0.278157317681901    0.055819606895141  0.0000
  O      O         0.166041813537142    0.278394772456043    0.655961329726567  0.0000
  O      O         0.611013487628548    0.241273347674046    0.151610238657774  0.0000
  O      O         0.570182949589527    0.111107178307494    0.258229278022157  0.0000
  O      O         0.040807703825180    0.390200639928439    0.315092159750637  0.0000
  O      O         0.779326389441835    0.844701830414198    0.443936769864178  0.0000
  O      O         0.852993493260201    0.318860171158628    0.000056784920337  0.0000
  O      O         0.296467345650401    0.430115551512943    0.000056969449221  0.0000
  O      O         0.074695196745337    0.347001871397373    0.000056775369430  0.0000
  O      O         0.147399188504314    0.237026480511716    0.000056804376085  0.0000
  O      O         0.074988440847241    0.208761624062876    0.000056956117057  0.0000
  O      O         0.073610359257806    0.126914414597325    0.000056804627333  0.0000
  O      O         0.574946957939601    0.069949806117818    0.500056755910493  0.0000
  O      O         0.645592540709862    0.040776460007150    0.500056964280657  0.0000
  O      O         0.999980390385791    0.350789061381001    0.296008585100016  0.0000
  O      O         0.553642831460061    0.069643912850021    0.446394489314893  0.0000
  O      O         0.054007359587108    0.346235178149047    0.946029987808727  0.0000
  O      O         0.054214528415409    0.210332015892470    0.945822817581448  0.0000
  O      O         0.055109341861401    0.123682594145822    0.944928009880619  0.0000
  O      O         0.166031743670456    0.234759169421698    0.834005598497353  0.0000
  O      O         0.835899546143448    0.836064321411148    0.457724019346190  0.0000
  O      O         0.164758605586951    0.164923365990772    0.678964604398890  0.0000
  O      O         0.224448472439057    0.224613242489848    0.931733033964626  0.0000
  O      O         0.112272126190678    0.112436889716285    0.956449677325645  0.0000
  O      O         0.154162055785088    0.223287110597508    0.776914996706194  0.0000
  O      O         0.628721377079706    0.000145338037621    0.459245284504929  0.0000
  Si     Si        0.646182844391768    0.083593160199783    0.965510985854626  0.0000
  Si     Si        0.687287936526479    0.139012765117863    0.965132359958585  0.0000
  Si     Si        0.757093336855324    0.139421653709024    0.965137463637843  0.0000
  Si     Si        0.798054442215399    0.083708043824114    0.965377185137602  0.0000
  Si     Si        0.867454365597193    0.083717295444634    0.965524175183585  0.0000
  Si     Si        0.923047836107456    0.583514166039945    0.465501159997670  0.0000
  Si     Si        0.965226752590842    0.637874672393262    0.465101115446535  0.0000
  Si     Si        0.805709348109442    0.145445583625888    0.687120340432795  0.0000
  Si     Si        0.756242413995460    0.076374482936420    0.805193913844635  0.0000
  Si     Si        0.805482015092045    0.145534252977769    0.756411334210894  0.0000
  Si     Si        0.805132829980688    0.313465863395893    0.924343763194652  0.0000
  Si     Si        0.534578993061871    0.193777946564574    0.855396737353090  0.0000
  Si     Si        0.575284139930178    0.305882796631062    0.965247716081131  0.0000
  Si     Si        0.576045996682889    0.854417577179697    0.750831043948566  0.0000
  O      O         0.667429553365528    0.110723425835284    0.954545437584815  0.0000
  O      O         0.722243297294825    0.130937576833936    0.959326526518059  0.0000
  O      O         0.777270717959908    0.111298297498469    0.954597180397599  0.0000
  O      O         0.832787532860285    0.093470152816577    0.960602602052763  0.0000
  O      O         0.388425024958851    0.093926382045561    0.961281706998358  0.0000
  O      O         0.944428584323162    0.610396266063417    0.454130102346936  0.0000
  O      O         0.814115057108405    0.110635134311409    0.680839165342590  0.0000
  O      O         0.795689228474618    0.278448740454738    0.849553805594727  0.0000
  O      O         0.761441964925239    0.184635529226906    0.889281046140656  0.0000
  O      O         0.721512505179354    0.070248625842693    0.796545193701106  0.0000
  O      O         0.166973008133898    0.055130757065931    0.323260203654499  0.0000
  O      O         0.167768494550132    0.054964636999211    0.232980925386868  0.0000
  O      O         0.565698965396447    0.277140124489987    0.833673193529598  0.0000
  O      O         0.554443552520186    0.333674858002393    0.044417655694671  0.0000
  O      O         0.721968776332173    0.434577787347192    0.055819289670862  0.0000
  O      O         0.721730663440802    0.166206325110670    0.655961306715683  0.0000
  O      O         0.758852430106665    0.611178518861493    0.151610341520997  0.0000
  O      O         0.889018373195062    0.570347725508227    0.258229274492283  0.0000
  O      O         0.609924853849344    0.040972478159102    0.315092110512585  0.0000
  O      O         0.155423915099814    0.779490850530092    0.443937032129954  0.0000
  O      O         0.681265535818188    0.853158244195352    0.000056955929801  0.0000
  O      O         0.570010194099395    0.296632269176601    0.000056635877794  0.0000
  O      O         0.653123841258473    0.074859968977119    0.000056961481842  0.0000
  O      O         0.763099241742472    0.147563973256603    0.000056949366789  0.0000
  O      O         0.791364087408706    0.075153218310792    0.000056789485095  0.0000
  O      O         0.873211301903276    0.073775122148283    0.000056949175223  0.0000
  O      O         0.930175911362575    0.575111750613200    0.500056978754476  0.0000
  O      O         0.959349255081236    0.645757303766554    0.500056785565401  0.0000
  O      O         0.649336631857825    0.000145335366508    0.296008569499492  0.0000
  O      O         0.930481748199049    0.553807236669341    0.446394879145590  0.0000
  O      O         0.653890541185597    0.054171796046948    0.946030307168378  0.0000
  O      O         0.789793651955714    0.054379573499018    0.945822547491173  0.0000
  O      O         0.876443173818056    0.055273880010462    0.944928232170804  0.0000
  O      O         0.765366599213825    0.166196285998648    0.834005823409564  0.0000
  O      O         0.164061692567142    0.836064028201303    0.457723989160459  0.0000
  O      O         0.835202098584343    0.164923609272956    0.678964582123602  0.0000
  O      O         0.775512197167849    0.224613525339717    0.931732988479310  0.0000
  O      O         0.887689037901911    0.112436674479810    0.956449698428149  0.0000
  O      O         0.776838819108149    0.154326767289136    0.776915217837095  0.0000
  O      O         0.999980563552476    0.628886150738842    0.459245280339557  0.0000
  Si     Si        0.916532396796564    0.646347477343111    0.965510870385219  0.0000
  Si     Si        0.861112787798181    0.687452586068311    0.965132477496912  0.0000
  Si     Si        0.860704208742532    0.757257991348086    0.965137373645824  0.0000
  Si     Si        0.916417804019997    0.798219107775075    0.965377308964589  0.0000
  Si     Si        0.916408302089261    0.867619022022851    0.965524084291811  0.0000
  Si     Si        0.416611382151387    0.923212484302079    0.465501010288829  0.0000
  Si     Si        0.362250867715171    0.965391400324878    0.465101233949992  0.0000
  Si     Si        0.854680233377179    0.805874231569696    0.687120242823497  0.0000
  Si     Si        0.923751127843165    0.756407294382095    0.805194041091174  0.0000
  Si     Si        0.854591351102014    0.805646663252695    0.756411230395251  0.0000
  Si     Si        0.686659974023642    0.805297414042848    0.924343880250517  0.0000
  Si     Si        0.806347634145926    0.534743677488045    0.855396615848044  0.0000
  Si     Si        0.694243202397241    0.575448756026942    0.965247991422619  0.0000
  Si     Si        0.145708244021794    0.576210862572164    0.750831197707934  0.0000
  O      O         0.889401943014238    0.667594004147081    0.954545433844235  0.0000
  O      O         0.869188132446667    0.722407897496180    0.959326535641919  0.0000
  O      O         0.888827728501001    0.777435201886646    0.954597200031153  0.0000
  O      O         0.906655534232703    0.832952145661250    0.960602629433472  0.0000
  O      O         0.906199351218036    0.388589596841302    0.961281706458677  0.0000
  O      O         0.389729063674054    0.944593028311992    0.454130086682209  0.0000
  O      O         0.889490729514975    0.814279822656012    0.680839166794805  0.0000
  O      O         0.721676827988882    0.795853973504670    0.849553836998297  0.0000
  O      O         0.815490175083379    0.761606756401581    0.889280895324723  0.0000
  O      O         0.929877076397288    0.721677433734893    0.796545195980815  0.0000
  O      O         0.944995238306061    0.167138109635717    0.323260191870047  0.0000
  O      O         0.945160813986054    0.167932965299808    0.232980903866574  0.0000
  O      O         0.722985255993986    0.565863724619394    0.833673524187583  0.0000
  O      O         0.666450485713835    0.554608660656796    0.044417707018928  0.0000
  O      O         0.565547926673246    0.722133169387030    0.055819646529389  0.0000
  O      O         0.833919134128155    0.721895703692115    0.655961325949980  0.0000
  O      O         0.388947346829052    0.759017156852474    0.151610341547446  0.0000
  O      O         0.429777990532502    0.889183319460981    0.258229259736787  0.0000
  O      O         0.959153236908791    0.610089834914191    0.315092165387163  0.0000
  O      O         0.220634551533318    0.155588655675292    0.443936776607452  0.0000
  O      O         0.146967462829922    0.681430305863776    0.000056804139359  0.0000
  O      O         0.703493593627754    0.570174944163035    0.000056977877620  0.0000
  O      O         0.925265749319989    0.653288612188455    0.000056781512082  0.0000
  O      O         0.852561755118871    0.763264000167397    0.000056811179533  0.0000
  O      O         0.924972505820980    0.791528854188035    0.000056961227099  0.0000
  O      O         0.926350586983865    0.873376064655689    0.000056810036708  0.0000
  O      O         0.425013972260238    0.930340678726495    0.500056766498175  0.0000
  O      O         0.354368408050177    0.959514019309704    0.500056960022867  0.0000
  O      O         0.999980549025907    0.649501414014634    0.296008590704904  0.0000
  O      O         0.446318126620844    0.930646576178775    0.446394521166561  0.0000
  O      O         0.945953591155048    0.654055305768666    0.946029995716366  0.0000
  O      O         0.945746415739114    0.789958458144453    0.945822820399660  0.0000
  O      O         0.944851605377409    0.876607884993137    0.944928015781014  0.0000
  O      O         0.833929203006738    0.765531310721309    0.834005601717189  0.0000
  O      O         0.164061394518597    0.164226153501357    0.457724025885966  0.0000
  O      O         0.835202340499653    0.835367108205189    0.678964606543384  0.0000
  O      O         0.775512472624902    0.775677237809593    0.931733038114110  0.0000
  O      O         0.887688819680216    0.887853587179054    0.956449683058666  0.0000
  O      O         0.845798891284091    0.777003363533073    0.776914998450271  0.0000
  O      O         0.371239572920744    0.000145146077628    0.459245282772763  0.0000
  Si     Si        0.034526347322255    0.353942875745734    0.083504795911552  0.0000
  Si     Si        0.034904978708288    0.312837785794268    0.138924403902817  0.0000
  Si     Si        0.034899886319807    0.243032385659336    0.139333276059020  0.0000
  Si     Si        0.034660159257849    0.202071274053287    0.083619671744584  0.0000
  Si     Si        0.034513178612636    0.132671352102863    0.083628938228646  0.0000
  Si     Si        0.534536185352959    0.077077871280895    0.583425799652163  0.0000
  Si     Si        0.534936233683235    0.034898953345441    0.637786302908098  0.0000
  Si     Si        0.312916999753346    0.194416385407994    0.145357215952153  0.0000
  Si     Si        0.194843428766538    0.243883304398877    0.076286123954830  0.0000
  Si     Si        0.243626000704225    0.194643695846922    0.145445887400592  0.0000
  Si     Si        0.075693572881484    0.194992901874209    0.313377491171295  0.0000
  Si     Si        0.144640591033421    0.465546716641943    0.193689583536065  0.0000
  Si     Si        0.034789491400493    0.424841591781811    0.305794346332519  0.0000
  Si     Si        0.249206292550617    0.424079718748558    0.854329205077278  0.0000
  O      O         0.045491897191054    0.332696179298317    0.110635070431911  0.0000
  O      O         0.040710819570594    0.277882427777483    0.130849206877223  0.0000
  O      O         0.045440166529306    0.222855011140722    0.111209914417452  0.0000
  O      O         0.039434746785705    0.167338186761082    0.093381793216093  0.0000
  O      O         0.038755632551498    0.611700689519289    0.093838021987658  0.0000
  O      O         0.545907246616287    0.055697117045520    0.610307893112244  0.0000
  O      O         0.319198187148809    0.186010674428424    0.110546768806767  0.0000
  O      O         0.150483530852471    0.204436482893956    0.278360375117151  0.0000
  O      O         0.110756301250540    0.238683750232968    0.184547165589947  0.0000
  O      O         0.203492152274841    0.278613212820045    0.070160267707949  0.0000
  O      O         0.676777141040781    0.833152702758303    0.055042395845658  0.0000
  O      O         0.767056419595017    0.832357222431096    0.054876271735111  0.0000
  O      O         0.166364127913031    0.434426746869283    0.277051768508419  0.0000
  O      O         0.955619649377292    0.445682154678441    0.333586487715222  0.0000
  O      O         0.944218035978563    0.278156929017677    0.434489414120614  0.0000
  O      O         0.344076008173067    0.278395101753628    0.166117934569266  0.0000
  O      O         0.848427002902389    0.241273282917503    0.611090146765853  0.0000
  O      O         0.741808072683769    0.111107338305116    0.570259364556260  0.0000
  O      O         0.684945190084521    0.390200836928911    0.040884062836795  0.0000
  O      O         0.556100313720379    0.844701792004248    0.779402478350704  0.0000
  O      O         0.999980398030732    0.318860169381681    0.853069888542560  0.0000
  O      O         0.999980570290546    0.430115534577071    0.296543774141516  0.0000
  O      O         0.999980372749287    0.347001868215340    0.074771607106069  0.0000
  O      O         0.999980401581920    0.237026477389245    0.147475596748313  0.0000
  O      O         0.999980553885252    0.208761624325563    0.075064844499351  0.0000
  O      O         0.999980405705839    0.126914414819153    0.073686762033242  0.0000
  O      O         0.499980364686068    0.069949799065205    0.575023389968896  0.0000
  O      O         0.499980564383558    0.040776454432782    0.645668936605647  0.0000
  O      O         0.704028782894117    0.350789066842037    0.000056937500725  0.0000
  O      O         0.553642459112815    0.069643963488713    0.553718864924733  0.0000
  O      O         0.054007032600444    0.346235172904163    0.054083436845136  0.0000
  O      O         0.054214793593910    0.210332054804749    0.054291197371832  0.0000
  O      O         0.055109124554476    0.123682542872236    0.055185525156168  0.0000
  O      O         0.166031521252495    0.234759119959478    0.166107927074560  0.0000
  O      O         0.542313354631602    0.836064020177901    0.835975657124033  0.0000
  O      O         0.321072776608937    0.164923646611526    0.164835252455930  0.0000
  O      O         0.068304347794170    0.224613507240284    0.224525145064976  0.0000
  O      O         0.043587651007703    0.112436680469874    0.112348319334519  0.0000
  O      O         0.223122122999562    0.223286894939889    0.154238404000737  0.0000
  O      O         0.540792066538420    0.000145141318508    0.628797785184938  0.0000
  Si     Si        0.646182696605592    0.034691258056493    0.083504941661275  0.0000
  Si     Si        0.687287802892180    0.035069654484522    0.138924552490939  0.0000
  Si     Si        0.757093208742371    0.035064763993207    0.139333130330953  0.0000
  Si     Si        0.798054336783091    0.034824815756216    0.083619541690899  0.0000
  Si     Si        0.867454248890989    0.034678039413248    0.083629048620756  0.0000
  Si     Si        0.923047718635173    0.534701099414113    0.583425965553353  0.0000
  Si     Si        0.965226634392053    0.535100878580658    0.637786480463847  0.0000
  Si     Si        0.805709484086756    0.313081890516548    0.145357096181546  0.0000
  Si     Si        0.756242514267649    0.195008082841334    0.076286219306835  0.0000
  Si     Si        0.805481874505658    0.243790901204894    0.145445997082624  0.0000
  Si     Si        0.805132629630128    0.075858241544722    0.313377360708771  0.0000
  Si     Si        0.534578894602124    0.144805616919603    0.193689691490000  0.0000
  Si     Si        0.575283968593239    0.034954129815013    0.305794114589913  0.0000
  Si     Si        0.576046100334575    0.249370896145561    0.854329054199990  0.0000
  O      O         0.667429216398013    0.045656697068100    0.110635399760781  0.0000
  O      O         0.722243114135915    0.040875591181518    0.130849200973426  0.0000
  O      O         0.777270421587399    0.045604928826544    0.111209608341211  0.0000
  O      O         0.832787373055670    0.039599495874981    0.093381819971665  0.0000
  O      O         0.388424829746371    0.038920420593920    0.093837982275882  0.0000
  O      O         0.944428266949030    0.546072024066441    0.610308280188984  0.0000
  O      O         0.814115071506694    0.319362955158966    0.110546597080149  0.0000
  O      O         0.795689191929742    0.150648293283902    0.278360515893027  0.0000
  O      O         0.761441959990097    0.110921256865630    0.184547168310590  0.0000
  O      O         0.721512660241252    0.203656925950683    0.070160236517237  0.0000
  O      O         0.166973334410759    0.676941917506505    0.055042110539897  0.0000
  O      O         0.167768199268040    0.767221208988035    0.054876531640793  0.0000
  O      O         0.565698937811293    0.166528595721313    0.277052128246506  0.0000
  O      O         0.554443898256818    0.955784408175330    0.333586866592572  0.0000
  O      O         0.721968406901896    0.944382489429488    0.434489413610584  0.0000
  O      O         0.721730979333504    0.344240790042603    0.166118226250835  0.0000
  O      O         0.758852393416765    0.848591775766505    0.611090002962551  0.0000
  O      O         0.889018548190460    0.741972862333972    0.570259361904992  0.0000
  O      O         0.609925068361974    0.685109951402776    0.040884110910771  0.0000
  O      O         0.155423885318218    0.556265340654435    0.779402793490421  0.0000
  O      O         0.681265541189377    0.000145308026603    0.853069884170762  0.0000
  O      O         0.570010161467923    0.000145137500130    0.296543747712721  0.0000
  O      O         0.653123837984432    0.000145346891167    0.074771594858584  0.0000
  O      O         0.763099223683849    0.000145328985708    0.147475597881971  0.0000
  O      O         0.791364085919659    0.000145162487027    0.075064841598833  0.0000
  O      O         0.873211289484029    0.000145313056009    0.073686764562686  0.0000
  O      O         0.930175912121300    0.500145342779715    0.575023376786987  0.0000
  O      O         0.959349254561512    0.500145152028665    0.645668939741392  0.0000
  O      O         0.649336647734441    0.704193523658718    0.000056797322533  0.0000
  O      O         0.930481804459638    0.553807586271596    0.553719218360988  0.0000
  O      O         0.653890528907960    0.054172128218564    0.054083746126282  0.0000
  O      O         0.789793697671471    0.054379298889686    0.054290923814706  0.0000
  O      O         0.876443111000267    0.055274105326060    0.055185743911849  0.0000
  O      O         0.765366485857685    0.166196566016206    0.166108156655827  0.0000
  O      O         0.164061386951865    0.542478092003578    0.835975949803761  0.0000
  O      O         0.835202365313838    0.321237516083486    0.164834986579627  0.0000
  O      O         0.775512455111952    0.068469098776045    0.224524856920060  0.0000
  O      O         0.887688817795841    0.043752442160720    0.112348527551564  0.0000
  O      O         0.776838551895627    0.223287161684400    0.154238454066969  0.0000
  O      O         0.999980381741263    0.540956830492409    0.628797781954167  0.0000
  Si     Si        0.965434595726185    0.646347603673935    0.083504802517794  0.0000
  Si     Si        0.965055968562042    0.687452693729967    0.138924410606792  0.0000
  Si     Si        0.965061055409616    0.757258093711217    0.139333280289214  0.0000
  Si     Si        0.965300785812569    0.798219205782359    0.083619677912241  0.0000
  Si     Si        0.965447769322552    0.867619127829958    0.083628942616077  0.0000
  Si     Si        0.465424761107541    0.923212601758939    0.583425800156811  0.0000
  Si     Si        0.465024714867510    0.965391517501398    0.637786306382419  0.0000
  Si     Si        0.687043938265395    0.805874111396236    0.145357226654350  0.0000
  Si     Si        0.805117514059649    0.756407177800247    0.076286129691959  0.0000
  Si     Si        0.756334933673590    0.805646782670607    0.145445895339080  0.0000
  Si     Si        0.924267367810395    0.805297580646534    0.313377493931481  0.0000
  Si     Si        0.855320352465075    0.534743763388994    0.193689578963636  0.0000
  Si     Si        0.965171451489397    0.575448884239100    0.305794348552733  0.0000
  Si     Si        0.750754648723910    0.576210766802523    0.854329212788559  0.0000
  O      O         0.954469048065923    0.667594298430263    0.110635079201622  0.0000
  O      O         0.959250125498256    0.722408050872411    0.130849211449477  0.0000
  O      O         0.954520774760321    0.777435468046126    0.111209918562503  0.0000
  O      O         0.960526200519594    0.832952293561627    0.093381798958684  0.0000
  O      O         0.961205311912899    0.388589791863477    0.093838016366550  0.0000
  O      O         0.454053703109292    0.944593351280804    0.610307898469564  0.0000
  O      O         0.680762762088701    0.814279818524285    0.110546777427550  0.0000
  O      O         0.849477409349509    0.795854001898518    0.278360377866188  0.0000
  O      O         0.889204640346823    0.761606729412285    0.184547170456931  0.0000
  O      O         0.796468794829812    0.721677268868608    0.070160273193445  0.0000
  O      O         0.323183801745224    0.167137778409981    0.055042389647269  0.0000
  O      O         0.232904513986414    0.167933251909014    0.054876264659036  0.0000
  O      O         0.833596815559685    0.565863729779287    0.277051766981367  0.0000
  O      O         0.044341292864348    0.554608323217821    0.333586493198880  0.0000
  O      O         0.055742906372074    0.722133546883645    0.434489419038565  0.0000
  O      O         0.655884905496364    0.721895421840401    0.166117964478291  0.0000
  O      O         0.151533942016985    0.759017194823023    0.611090142665304  0.0000
  O      O         0.258152870475683    0.889183143343664    0.570259362623196  0.0000
  O      O         0.315015747771014    0.610089651919942    0.040884088027047  0.0000
  O      O         0.443860635754429    0.155588674149607    0.779402476606886  0.0000
  O      O         0.999980547447446    0.681430307756879    0.853069887235624  0.0000
  O      O         0.999980373276396    0.570174944125069    0.296543777369241  0.0000
  O      O         0.999980569594482    0.653288610660367    0.074771611732703  0.0000
  O      O         0.999980539356729    0.763264003683576    0.147475601453443  0.0000
  O      O         0.999980391824607    0.791528853992770    0.075064854977269  0.0000
  O      O         0.999980542366842    0.873376064694230    0.073686765238786  0.0000
  O      O         0.499980580666141    0.930340675950791    0.575023384860128  0.0000
  O      O         0.499980384119833    0.959514017867506    0.645668941568271  0.0000
  O      O         0.295932170475440    0.649501424104800    0.000056957111680  0.0000
  O      O         0.446318478161888    0.930646513560994    0.553718872161981  0.0000
  O      O         0.945953910025380    0.654055309073243    0.054083444613864  0.0000
  O      O         0.945746153119300    0.789958426091995    0.054291201985790  0.0000
  O      O         0.944851822666481    0.876607935772754    0.055185529636300  0.0000
  O      O         0.833929418569215    0.765531360815873    0.166107933767662  0.0000
  O      O         0.457647593707517    0.164226456449172    0.835975650912471  0.0000
  O      O         0.678888173970012    0.835366860752040    0.164835251402919  0.0000
  O      O         0.931656595002734    0.775676975947594    0.224525148038459  0.0000
  O      O         0.956373296070576    0.887853799709381    0.112348323375408  0.0000
  O      O         0.776838814922720    0.777003585691005    0.154238412480340  0.0000
  O      O         0.459168882041264    0.000145328920205    0.628797785414958  0.0000
  Si     Si        0.353778240725993    0.965599230386196    0.083504956592770  0.0000
  Si     Si        0.312673129156800    0.965220844882040    0.138924563769766  0.0000
  Si     Si        0.242867723450858    0.965225735518132    0.139333145174548  0.0000
  Si     Si        0.201906604788026    0.965465667136414    0.083619552112983  0.0000
  Si     Si        0.132506690817048    0.965612441562338    0.083629049711905  0.0000
  Si     Si        0.076913226534026    0.465589377850831    0.583425965634643  0.0000
  Si     Si        0.034734311726052    0.465189601453351    0.637786481036271  0.0000
  Si     Si        0.194251476228717    0.687208607964063    0.145357120398086  0.0000
  Si     Si        0.243718418877955    0.805282404768996    0.076286229010055  0.0000
  Si     Si        0.194479048893806    0.756499596347683    0.145446005396525  0.0000
  Si     Si        0.194828296967990    0.924432244972722    0.313377378902532  0.0000
  Si     Si        0.465382047431952    0.855484993012455    0.193689717864822  0.0000
  Si     Si        0.424676959676443    0.965336365900433    0.305794159942490  0.0000
  Si     Si        0.423914851431880    0.750919565498378    0.854329100489683  0.0000
  O      O         0.332531713574111    0.954633798423241    0.110635411682887  0.0000
  O      O         0.277717817774312    0.959414901702609    0.130849218644850  0.0000
  O      O         0.222690511244984    0.954685558252612    0.111209627610578  0.0000
  O      O         0.167173566559595    0.960690988343715    0.093381821655656  0.0000
  O      O         0.611536102168836    0.961370078331007    0.093837990766883  0.0000
  O      O         0.055532678623583    0.454218454691109    0.610308281062465  0.0000
  O      O         0.185845885022250    0.680927533043848    0.110546624220106  0.0000
  O      O         0.204271739112587    0.849642197922498    0.278360526247448  0.0000
  O      O         0.238518964911370    0.889369258988501    0.184547183206389  0.0000
  O      O         0.278448278401031    0.796633555494083    0.070160279530703  0.0000
  O      O         0.832987597665878    0.323348563167496    0.055042076107739  0.0000
  O      O         0.832192745115395    0.233069275388046    0.054876530145565  0.0000
  O      O         0.434261995242523    0.833761888245463    0.277052095466857  0.0000
  O      O         0.445517038607614    0.044506092979467    0.333586861212627  0.0000
  O      O         0.277992549636204    0.055908008438210    0.434489415058383  0.0000
  O      O         0.278230000525891    0.656049698300972    0.166118226389005  0.0000
  O      O         0.241108553475394    0.151698699219731    0.611090006498897  0.0000
  O      O         0.110942396895804    0.258317614069385    0.570259364615694  0.0000
  O      O         0.390035865229897    0.315180536982872    0.040884095108492  0.0000
  O      O         0.844537062540444    0.444025141301985    0.779402793553001  0.0000
  O      O         0.318695404692973    0.000145156064762    0.853069882285099  0.0000
  O      O         0.429950777597254    0.000145350061671    0.296543759129637  0.0000
  O      O         0.346837102979258    0.000145138097505    0.074771592830939  0.0000
  O      O         0.236861710974350    0.000145172971091    0.147475597919353  0.0000
  O      O         0.208596859767903    0.000145319399856    0.075064851321645  0.0000
  O      O         0.126749647877535    0.000145166696185    0.073686762587098  0.0000
  O      O         0.069785033331122    0.500145134329367    0.575023375427562  0.0000
  O      O         0.040611691629507    0.500145328082615    0.645668939441883  0.0000
  O      O         0.350624302161558    0.296096973502948    0.000056765944082  0.0000
  O      O         0.069479139364317    0.446482889089615    0.553719219868727  0.0000
  O      O         0.346070411057682    0.946118349950431    0.054083767162758  0.0000
  O      O         0.210167252474853    0.945911179776998    0.054290939205758  0.0000
  O      O         0.123517830176709    0.945016372534327    0.055185746533952  0.0000
  O      O         0.234594409341502    0.834093965185944    0.166108154481270  0.0000
  O      O         0.835899559688777    0.457812396706451    0.835975949616224  0.0000
  O      O         0.164758599464195    0.679052972884478    0.164835013155005  0.0000
  O      O         0.224448482970666    0.931821401890301    0.224524884444017  0.0000
  O      O         0.112272123062759    0.956538039466422    0.112348529659091  0.0000
  O      O         0.223122350504161    0.777003362412337    0.154238465224422  0.0000
  O      O         0.999980564330140    0.459333649108483    0.628797782849219  0.0000
  Si     Si        0.034526348144218    0.646347607342283    0.916608955762192  0.0000
  Si     Si        0.034904974526130    0.687452695282958    0.861189346766764  0.0000
  Si     Si        0.034899889281307    0.757258095929083    0.860780479055302  0.0000
  Si     Si        0.034660158660337    0.798219203912337    0.916494084361309  0.0000
  Si     Si        0.034513173220784    0.867619126994406    0.916484820580124  0.0000
  Si     Si        0.534536188566898    0.923212617612698    0.416687943753564  0.0000
  Si     Si        0.534936236555551    0.965391547508292    0.362327445413575  0.0000
  Si     Si        0.312917006705691    0.805874115160692    0.854756529182319  0.0000
  Si     Si        0.194843428386672    0.756407179574907    0.923827625149752  0.0000
  Si     Si        0.243626012112126    0.805646777257039    0.854667858235279  0.0000
  Si     Si        0.075693570949395    0.805297575118793    0.686736259260875  0.0000
  Si     Si        0.144640592929111    0.534743764739533    0.806424166858744  0.0000
  Si     Si        0.034789494178247    0.575448886101669    0.694319403549545  0.0000
  Si     Si        0.249206301205816    0.576210760158939    0.145784540502153  0.0000
  O      O         0.045491896044417    0.667594301988025    0.889478679048298  0.0000
  O      O         0.040710819766775    0.722408052410485    0.869264543836924  0.0000
  O      O         0.045440170522199    0.777435467980595    0.888903842417891  0.0000
  O      O         0.039434742914550    0.832952292412080    0.906731966286444  0.0000
  O      O         0.038755637639503    0.388589792413794    0.906275728087838  0.0000
  O      O         0.545907244886898    0.944593388399384    0.389805861084648  0.0000
  O      O         0.319198180670566    0.814279827674295    0.889566977734292  0.0000
  O      O         0.150483531094181    0.795853993747134    0.721753371407137  0.0000
  O      O         0.110756302717248    0.761606731767423    0.815566586139295  0.0000
  O      O         0.203492145573515    0.721677270288635    0.929953482317483  0.0000
  O      O         0.676777149049230    0.167137768176907    0.945071344741382  0.0000
  O      O         0.767056423769608    0.167933276524064    0.945237486187772  0.0000
  O      O         0.166364121079010    0.565863733350173    0.723061978824861  0.0000
  O      O         0.955619650047939    0.554608329343925    0.666527255797885  0.0000
  O      O         0.944218036775416    0.722133544558069    0.565624331384181  0.0000
  O      O         0.344076039236945    0.721895433382339    0.833995786795331  0.0000
  O      O         0.848427003425306    0.759017191290175    0.389023602764400  0.0000
  O      O         0.741808068151254    0.889183148863301    0.429854384403269  0.0000
  O      O         0.684945196355788    0.610089641312014    0.959229658884256  0.0000
  O      O         0.556100253850243    0.155588719574407    0.220711316942003  0.0000
  O      O         0.999980395064878    0.681430306219912    0.147043873689757  0.0000
  O      O         0.999980571505426    0.570174947799418    0.703569969912972  0.0000
  O      O         0.999980374192357    0.653288613158486    0.925342147311108  0.0000
  O      O         0.999980405033502    0.763264006094964    0.852638159819715  0.0000
  O      O         0.999980552537661    0.791528850988080    0.925048905389620  0.0000
  O      O         0.999980400293061    0.873376065212967    0.926426997418395  0.0000
  O      O         0.499980367227136    0.930340679913389    0.425090360923306  0.0000
  O      O         0.499980566512757    0.959514049549208    0.354444816430700  0.0000
  O      O         0.704028762959727    0.649501410539607    0.000056797053767  0.0000
  O      O         0.553642467737496    0.930646514763484    0.446394877478041  0.0000
  O      O         0.054007031271664    0.654055314149057    0.946030314849700  0.0000
  O      O         0.054214791153949    0.789958422917226    0.945822560271140  0.0000
  O      O         0.055109118950780    0.876607937385989    0.944928233393801  0.0000
  O      O         0.166031527075462    0.765531361471701    0.834005818786647  0.0000
  O      O         0.542313452814739    0.164226707383384    0.164138161942447  0.0000
  O      O         0.321072765203142    0.835366863624895    0.835278501080222  0.0000
  O      O         0.068304345900411    0.775676975066688    0.775588609312272  0.0000
  O      O         0.043587647295120    0.887853796392372    0.887765438558900  0.0000
  O      O         0.223122132162773    0.777003577861070    0.845875345598521  0.0000
  O      O         0.540792078010075    0.000145363359232    0.371315945553853  0.0000
  Si     Si        0.353778231961493    0.034691246290172    0.916608791449854  0.0000
  Si     Si        0.312673121674579    0.035069635252545    0.861189186248332  0.0000
  Si     Si        0.242867716174868    0.035064740224263    0.860780605923546  0.0000
  Si     Si        0.201906604543673    0.034824807174641    0.916494203478928  0.0000
  Si     Si        0.132506690179757    0.034678034182846    0.916484708269149  0.0000
  Si     Si        0.076913226631019    0.534701098403996    0.416687785175039  0.0000
  Si     Si        0.034734310749462    0.535100874497308    0.362327270479891  0.0000
  Si     Si        0.194251477299061    0.313081868898485    0.854756631824336  0.0000
  Si     Si        0.243718413057909    0.195008070690384    0.923827523756540  0.0000
  Si     Si        0.194479045600095    0.243790880323954    0.854667748833079  0.0000
  Si     Si        0.194828296431242    0.075858231451665    0.686736371197572  0.0000
  Si     Si        0.465382045877469    0.144805485649774    0.806424022996671  0.0000
  Si     Si        0.424676953534502    0.034954119913360    0.694319585601181  0.0000
  Si     Si        0.423914809713043    0.249370933239584    0.145784612862803  0.0000
  O      O         0.332531699991399    0.045656681362407    0.889478342020650  0.0000
  O      O         0.277717810148138    0.040875578697003    0.869264527773058  0.0000
  O      O         0.222690506472413    0.045604917230156    0.888904125154472  0.0000
  O      O         0.167173565842639    0.039599485998948    0.906731936845753  0.0000
  O      O         0.611536111085639    0.038920403761859    0.906275740018312  0.0000
  O      O         0.055532679867635    0.546072021647936    0.389805468773196  0.0000
  O      O         0.185845889229727    0.319362947316086    0.889567128231566  0.0000
  O      O         0.204271737275151    0.150648277535095    0.721753226498831  0.0000
  O      O         0.238518960040615    0.110921215855169    0.815566571371564  0.0000
  O      O         0.278448272445642    0.203656922085491    0.929953470403295  0.0000
  O      O         0.832987606163766    0.676941917064750    0.945071648973426  0.0000
  O      O         0.832192750277809    0.767221209284309    0.945237229629263  0.0000
  O      O         0.434261989341261    0.166528585895200    0.723061650786225  0.0000
  O      O         0.445517048717497    0.955784392449188    0.666526887764183  0.0000
  O      O         0.277992534583882    0.944382480478454    0.565624326598389  0.0000
  O      O         0.278230002820164    0.344240788201241    0.833995521841993  0.0000
  O      O         0.241108560794916    0.848591782848862    0.389023743952393  0.0000
  O      O         0.110942397125385    0.741972859802781    0.429854387521753  0.0000
  O      O         0.390035869205069    0.685109958415948    0.959229642320878  0.0000
  O      O         0.844537056827522    0.556265336265044    0.220710953710692  0.0000
  O      O         0.318695410601584    0.000145325033706    0.147043868308080  0.0000
  O      O         0.429950770446994    0.000145135096964    0.703569980282024  0.0000
  O      O         0.346837099360177    0.000145336246885    0.925342151553639  0.0000
  O      O         0.236861706280071    0.000145301592132    0.852638157212940  0.0000
  O      O         0.208596861412885    0.000145155346154    0.925048904380948  0.0000
  O      O         0.126749646756838    0.000145308870830    0.926426994596835  0.0000
  O      O         0.069785031712606    0.500145342439376    0.425090375769641  0.0000
  O      O         0.040611689528259    0.500145147512771    0.354444812050435  0.0000
  O      O         0.350624293161275    0.704193534064665    0.000056957438855  0.0000
  O      O         0.069479140605476    0.553807586992364    0.446394531271870  0.0000
  O      O         0.346070407259206    0.054172128839224    0.946029981232618  0.0000
  O      O         0.210167254746617    0.054379293838192    0.945822815970076  0.0000
  O      O         0.123517829820735    0.055274104443408    0.944928010809123  0.0000
  O      O         0.234594402048776    0.166196509465473    0.834005599157286  0.0000
  O      O         0.835899569464562    0.542478096516783    0.164137790615727  0.0000
  O      O         0.164758598718425    0.321237502745539    0.835278740983990  0.0000
  O      O         0.224448481219239    0.068469075294664    0.775588866002948  0.0000
  O      O         0.112272123340071    0.043752436407620    0.887765227854999  0.0000
  O      O         0.223122345849273    0.223287112921094    0.845875288694573  0.0000
  O      O         0.999980564245378    0.540956826903292    0.371315971847149  0.0000
  Si     Si        0.965434604262365    0.353942876283913    0.916608951974897  0.0000
  Si     Si        0.965055970967669    0.312837782566940    0.861189348243307  0.0000
  Si     Si        0.965061058094986    0.243032382921967    0.860780476779681  0.0000
  Si     Si        0.965300785843364    0.202071270879583    0.916494079340143  0.0000
  Si     Si        0.965447774540559    0.132671348000011    0.916484814161623  0.0000
  Si     Si        0.465424766188267    0.077077890573463    0.416687941358381  0.0000
  Si     Si        0.465024707461705    0.034898970779228    0.362327441243261  0.0000
  Si     Si        0.687043945597445    0.194416360138222    0.854756515787795  0.0000
  Si     Si        0.805117512513503    0.243883311161135    0.923827619558823  0.0000
  Si     Si        0.756334939815913    0.194643696623179    0.854667854325426  0.0000
  Si     Si        0.924267375211199    0.194992899593712    0.686736257846106  0.0000
  Si     Si        0.855320354015690    0.465546719646037    0.806424165838936  0.0000
  Si     Si        0.965171454077131    0.424841593475657    0.694319404612398  0.0000
  Si     Si        0.750754629269615    0.424079738807146    0.145784523949338  0.0000
  O      O         0.954469050352013    0.332696177563775    0.889478680430986  0.0000
  O      O         0.959250125246160    0.277882425437798    0.869264545611930  0.0000
  O      O         0.954520776613591    0.222855007041040    0.888903836837644  0.0000
  O      O         0.960526201901964    0.167338182426269    0.906731960652960  0.0000
  O      O         0.961205314027578    0.611700692650811    0.906275734208859  0.0000
  O      O         0.454053698746530    0.055697141211439    0.389805847416096  0.0000
  O      O         0.680762765231107    0.186010656055283    0.889566964096010  0.0000
  O      O         0.849477416932879    0.204436477986485    0.721753373420970  0.0000
  O      O         0.889204647375726    0.238683746491182    0.815566581781855  0.0000
  O      O         0.796468801371277    0.278613222109070    0.929953478876512  0.0000
  O      O         0.323183800791663    0.833152705757475    0.945071361757774  0.0000
  O      O         0.232904523653950    0.832357222962499    0.945237482010675  0.0000
  O      O         0.833596828388320    0.434426746580048    0.723061978738727  0.0000
  O      O         0.044341296972480    0.445682152709011    0.666527257169642  0.0000
  O      O         0.055742907136814    0.278156929475801    0.565624332554832  0.0000
  O      O         0.655884912240624    0.278395045541442    0.833995774597175  0.0000
  O      O         0.151533941183732    0.241273284262165    0.389023602996085  0.0000
  O      O         0.258152872746397    0.111107340567165    0.429854385791824  0.0000
  O      O         0.315015747639952    0.390200852513916    0.959229651356806  0.0000
  O      O         0.443860644133817    0.844701804000653    0.220711269885711  0.0000
  O      O         0.999980553109848    0.318860173982851    0.147043868691559  0.0000
  O      O         0.999980377001947    0.430115530415478    0.703569971063504  0.0000
  O      O         0.999980578829640    0.347001869162855    0.925342137232879  0.0000
  O      O         0.999980542709221    0.237026476088915    0.852638157594897  0.0000
  O      O         0.999980391846503    0.208761622224542    0.925048902962656  0.0000
  O      O         0.999980547840163    0.126914411060652    0.926426989596956  0.0000
  O      O         0.499980590547092    0.069949818190002    0.425090336622449  0.0000
  O      O         0.499980374996256    0.040776467548338    0.354444798972994  0.0000
  O      O         0.295932174173162    0.350789079389673    0.000056779972318  0.0000
  O      O         0.446318495518937    0.069643976565114    0.446394877350884  0.0000
  O      O         0.945953930590185    0.346235177171728    0.946030318972285  0.0000
  O      O         0.945746149470163    0.210332053642093    0.945822552346203  0.0000
  O      O         0.944851831788475    0.123682536772279    0.944928228606650  0.0000
  O      O         0.833929424067249    0.234759123166191    0.834005818387261  0.0000
  O      O         0.457647592853901    0.836064019375142    0.164138092015039  0.0000
  O      O         0.678888187582774    0.164923605801158    0.835278497254994  0.0000
  O      O         0.931656604299837    0.224613500783530    0.775588606161939  0.0000
  O      O         0.956373299211310    0.112436677716038    0.887765433018403  0.0000
  O      O         0.776838821009904    0.223286893885023    0.845875337738045  0.0000
  O      O         0.459168872931379    0.000145160698439    0.371315968514453  0.0000
  Si     Si        0.646182708616811    0.965599223712454    0.916608798558873  0.0000
  Si     Si        0.687287820485233    0.965220829197182    0.861189193467839  0.0000
  Si     Si        0.757093225486980    0.965225726059214    0.860780614346596  0.0000
  Si     Si        0.798054340673492    0.965465670216484    0.916494210917334  0.0000
  Si     Si        0.867454254677010    0.965612438836436    0.916484709463857  0.0000
  Si     Si        0.923047714965592    0.465589374130646    0.416687781373261  0.0000
  Si     Si        0.965226631596273    0.465189599423177    0.362327267663811  0.0000
  Si     Si        0.805709468711806    0.687208608904908    0.854756637244821  0.0000
  Si     Si        0.756242531116880    0.805282409521227    0.923827528899766  0.0000
  Si     Si        0.805481902808384    0.756499598866152    0.854667754238447  0.0000
  Si     Si        0.805132648509244    0.924432241910256    0.686736374410028  0.0000
  Si     Si        0.534578902298514    0.855484981731799    0.806424023708111  0.0000
  Si     Si        0.575283993407546    0.965336352283073    0.694319587813175  0.0000
  Si     Si        0.576046097363687    0.750919571093061    0.145784655695806  0.0000
  O      O         0.667429236513925    0.954633784620378    0.889478347001683  0.0000
  O      O         0.722243131859236    0.959414886238281    0.869264538484620  0.0000
  O      O         0.777270435426763    0.954685556950587    0.888904136576242  0.0000
  O      O         0.832787378022543    0.960690988555135    0.906731939950656  0.0000
  O      O         0.388424831291418    0.961370057806150    0.906275752692296  0.0000
  O      O         0.944428261432560    0.454218450902517    0.389805464576212  0.0000
  O      O         0.814115058400680    0.680927530177929    0.889567133445455  0.0000
  O      O         0.795689206215765    0.849642194163610    0.721753226518642  0.0000
  O      O         0.761441984479529    0.889369253380594    0.815566568858548  0.0000
  O      O         0.721512671409845    0.796633559324095    0.929953475933007  0.0000
  O      O         0.166973340611130    0.323348562552315    0.945071644169353  0.0000
  O      O         0.167768194255892    0.233069272819215    0.945237222801663  0.0000
  O      O         0.565698956524159    0.833761891661497    0.723061648687806  0.0000
  O      O         0.554443898573670    0.044506079680143    0.666526884778687  0.0000
  O      O         0.721968403138936    0.055908003285160    0.565624325445067  0.0000
  O      O         0.721730937686367    0.656049699992027    0.833995529484362  0.0000
  O      O         0.758852391941145    0.151698713560873    0.389023739530153  0.0000
  O      O         0.889018544617735    0.258317617830480    0.429854381433210  0.0000
  O      O         0.609925102375375    0.315180567685078    0.959229499101499  0.0000
  O      O         0.155423887489899    0.444025139020976    0.220710954350340  0.0000
  O      O         0.681265520762290    0.000145176594944    0.147043867585710  0.0000
  O      O         0.570010174893049    0.000145337793464    0.703569980198500  0.0000
  O      O         0.653123846112283    0.000145135159840    0.925342146993624  0.0000
  O      O         0.763099234229318    0.000145163184335    0.852638158199437  0.0000
  O      O         0.791364086530774    0.000145323554769    0.925048910323533  0.0000
  O      O         0.873211299439484    0.000145164572086    0.926426992574362  0.0000
  O      O         0.930175909632009    0.500145130103038    0.425090372575638  0.0000
  O      O         0.959349252900392    0.500145326608205    0.354444811868297  0.0000
  O      O         0.649336609624766    0.296096975912332    0.000056891482748  0.0000
  O      O         0.930481802955958    0.446482886125724    0.446394527273870  0.0000
  O      O         0.653890535406965    0.946118351034648    0.946029994383919  0.0000
  O      O         0.789793693539933    0.945911186489221    0.945822826259428  0.0000
  O      O         0.876443114458047    0.945016370734794    0.944928013828862  0.0000
  O      O         0.765366543564851    0.834093963662622    0.834005601573272  0.0000
  O      O         0.164061376524022    0.457812392702964    0.164137794694065  0.0000
  O      O         0.835202343283107    0.679052969610247    0.835278742255844  0.0000
  O      O         0.775512467356946    0.931821400950654    0.775588873106748  0.0000
  O      O         0.887688821656678    0.956538034856506    0.887765229400494  0.0000
  O      O         0.776838599822090    0.777003362733176    0.845875295350265  0.0000
  O      O         0.999980377984001    0.459333646218965    0.371315969547866  0.0000
  Si     Si        0.083428392008738    0.034691117180233    0.353854508251191  0.0000
  Si     Si        0.138848001703921    0.035069744194116    0.312749420161142  0.0000
  Si     Si        0.139256876284557    0.035064656809817    0.242944020036965  0.0000
  Si     Si        0.083543270534584    0.034824927721076    0.201982911410598  0.0000
  Si     Si        0.083552532714479    0.034677941045867    0.132582989116361  0.0000
  Si     Si        0.583349400061091    0.534700960182902    0.076989494037653  0.0000
  Si     Si        0.637709903254176    0.535101000422062    0.034810573373714  0.0000
  Si     Si        0.145280824749665    0.313081774843959    0.194328001866684  0.0000
  Si     Si        0.076209724326874    0.195008198146444    0.243794937225186  0.0000
  Si     Si        0.145369490776433    0.243790779876992    0.194555336981003  0.0000
  Si     Si        0.313301097456335    0.075858355676246    0.194904523503071  0.0000
  Si     Si        0.193613178774471    0.144805360511879    0.465458351774229  0.0000
  Si     Si        0.305717954454201    0.034954267490908    0.424753219914731  0.0000
  Si     Si        0.854252806325043    0.249371066380637    0.423991349051607  0.0000
  O      O         0.110558668046335    0.045656664930864    0.332607812410129  0.0000
  O      O         0.130772806668853    0.040875587007425    0.277794062386761  0.0000
  O      O         0.111133514731118    0.045604938273154    0.222766645332182  0.0000
  O      O         0.093305388597992    0.039599511509988    0.167249822997655  0.0000
  O      O         0.093761616484228    0.038920398429949    0.611612320965220  0.0000
  O      O         0.610231488915726    0.546072013573753    0.055608730083966  0.0000
  O      O         0.110470375198934    0.319362947623268    0.185922290868318  0.0000
  O      O         0.278283976201617    0.150648315949909    0.204348108917832  0.0000
  O      O         0.184470767897233    0.110921070348802    0.238595383792475  0.0000
  O      O         0.070083866032311    0.203656915977900    0.278524845898562  0.0000
  O      O         0.054965983852518    0.676941911297158    0.833064337848360  0.0000
  O      O         0.054799871096489    0.767221193266175    0.832268863339245  0.0000
  O      O         0.276975363508521    0.166528898645001    0.434338381525338  0.0000
  O      O         0.333510089386740    0.955784421483470    0.445593784834931  0.0000
  O      O         0.434413018821684    0.944382814045755    0.278068566057651  0.0000
  O      O         0.166041560965718    0.344240805935312    0.278306686314442  0.0000
  O      O         0.611013747189800    0.848591775041458    0.241184919224873  0.0000
  O      O         0.570182961343038    0.741972841753679    0.111018981431989  0.0000
  O      O         0.040807689758556    0.685109961304915    0.390112467040507  0.0000
  O      O         0.779326087586713    0.556265089373166    0.844613428712734  0.0000
  O      O         0.852993469722476    0.000145170090489    0.318771806482034  0.0000
  O      O         0.296467381265626    0.000145346781907    0.430027162701025  0.0000
  O      O         0.074695201571942    0.000145143224839    0.346913501592309  0.0000
  O      O         0.147399195259763    0.000145172297958    0.236938110992519  0.0000
  O      O         0.074988446949335    0.000145322155977    0.208673264694303  0.0000
  O      O         0.073610357090966    0.000145167699106    0.126826052518787  0.0000
  O      O         0.574946979074815    0.500145139385758    0.069861431759533  0.0000
  O      O         0.645592532164618    0.500145330126325    0.040688072886539  0.0000
  O      O         0.999980549041670    0.704193532916572    0.350700702458064  0.0000
  O      O         0.553642466299067    0.553807237559818    0.069555592119361  0.0000
  O      O         0.054007032774623    0.054171801340656    0.346146802986444  0.0000
  O      O         0.054214795630654    0.054379561859844    0.210243693263304  0.0000
  O      O         0.055109118058044    0.055273885155678    0.123594180563853  0.0000
  O      O         0.166031530104010    0.166196294158900    0.234670756234930  0.0000
  O      O         0.835899266152397    0.542478126001465    0.835975650381385  0.0000
  O      O         0.164758855375933    0.321237536418125    0.164835255477329  0.0000
  O      O         0.224448750375770    0.068469116446692    0.224525145929750  0.0000
  O      O         0.112271912674550    0.043752415739250    0.112348316752570  0.0000
  O      O         0.154162007456009    0.223286898872270    0.223198534340468  0.0000
  O      O         0.628721391609507    0.540956835981288    0.000056760723205  0.0000
  Si     Si        0.083428396127508    0.965599360815289    0.646259233652942  0.0000
  Si     Si        0.138848001462357    0.965220733497356    0.687364327859092  0.0000
  Si     Si        0.139256869333867    0.965225818431278    0.757169726738420  0.0000
  Si     Si        0.083543269703976    0.965465549785662    0.798130843486195  0.0000
  Si     Si        0.083552535416713    0.965612534191183    0.867530764331995  0.0000
  Si     Si        0.583349400085889    0.465589557255943    0.923124218454591  0.0000
  Si     Si        0.637709895405178    0.465189477783730    0.965303138361506  0.0000
  Si     Si        0.145280817186328    0.687208705306208    0.805785750068687  0.0000
  Si     Si        0.076209723934736    0.805282280579464    0.756318812313291  0.0000
  Si     Si        0.145369491505329    0.756499700094956    0.805558412639350  0.0000
  Si     Si        0.313301088897944    0.924432136940074    0.805209211602302  0.0000
  Si     Si        0.193613179258176    0.855485115570674    0.534655394837370  0.0000
  Si     Si        0.305717943500128    0.965336217789724    0.575360517751918  0.0000
  Si     Si        0.854252810199980    0.750919413847699    0.576122394786599  0.0000
  O      O         0.110558672174256    0.954633812892204    0.667505929295422  0.0000
  O      O         0.130772800475365    0.959414886639363    0.722319684111160  0.0000
  O      O         0.111133508182997    0.954685538356816    0.777347102624153  0.0000
  O      O         0.093305393281937    0.960690964075563    0.832863930569029  0.0000
  O      O         0.093761611738227    0.961370080889729    0.388501422659134  0.0000
  O      O         0.610231480179718    0.454218469999651    0.944504975932512  0.0000
  O      O         0.110470367259030    0.680927531383982    0.814191456883032  0.0000
  O      O         0.278283973618530    0.849642175208415    0.795765630947388  0.0000
  O      O         0.184470763978602    0.889369405985324    0.761518362810353  0.0000
  O      O         0.070083864562035    0.796633559175574    0.721588904405156  0.0000
  O      O         0.054965993478561    0.323348569256278    0.167049408951726  0.0000
  O      O         0.054799867261914    0.233069290225646    0.167844893077383  0.0000
  O      O         0.276975368803686    0.833761589202777    0.565775364248479  0.0000
  O      O         0.333510088273707    0.044506059658681    0.554519953821200  0.0000
  O      O         0.434413013691820    0.055907665386715    0.722045183318867  0.0000
  O      O         0.166041559740713    0.656049676056989    0.721807067396294  0.0000
  O      O         0.611013749801376    0.151698705572779    0.758928832569370  0.0000
  O      O         0.570182976200551    0.258317605264214    0.889094730371274  0.0000
  O      O         0.040807689291660    0.315180515820360    0.610001283368994  0.0000
  O      O         0.779326056351054    0.444025430604394    0.155500313077583  0.0000
  O      O         0.852993483107443    0.000145311905591    0.681341943139690  0.0000
  O      O         0.296467374619087    0.000145140060938    0.570086579454815  0.0000
  O      O         0.074695204430360    0.000145334481617    0.653200240387803  0.0000
  O      O         0.147399189934520    0.000145302755211    0.763175633975313  0.0000
  O      O         0.074988447180392    0.000145155831620    0.791440492606968  0.0000
  O      O         0.073610359211012    0.000145307521192    0.873287700218936  0.0000
  O      O         0.574947017516834    0.500145379515119    0.930252299533005  0.0000
  O      O         0.645592530344674    0.500145146759215    0.959425637096584  0.0000
  O      O         0.999980550044452    0.296096945876987    0.649413049861384  0.0000
  O      O         0.553642438143010    0.446483321663036    0.930558109689175  0.0000
  O      O         0.054007037979499    0.946118675237141    0.653966938443288  0.0000
  O      O         0.054214791731957    0.945910918538087    0.789870066779521  0.0000
  O      O         0.055109120859004    0.945016589533779    0.876519571902372  0.0000
  O      O         0.166031529401686    0.834094182189486    0.765442990481070  0.0000
  O      O         0.835899247238819    0.457812354689869    0.164138092987908  0.0000
  O      O         0.164758840841635    0.679052947568890    0.835278501524775  0.0000
  O      O         0.224448740092099    0.931821362897668    0.775588609210879  0.0000
  O      O         0.112271914588468    0.956538060188050    0.887765438214895  0.0000
  O      O         0.154162006940123    0.777003577687950    0.776915212610316  0.0000
  O      O         0.628721379166953    0.459333645276562    0.000056950391063  0.0000
  Si     Si        0.034526481932339    0.083593311868894    0.646259109659731  0.0000
  Si     Si        0.034904876945934    0.139012916037494    0.687364222824760  0.0000
  Si     Si        0.034899980626284    0.139421499082405    0.757169626442964  0.0000
  Si     Si        0.034660046644985    0.083707906579670    0.798130745600672  0.0000
  Si     Si        0.034513271914772    0.083717405287749    0.867530658787345  0.0000
  Si     Si        0.534536339234464    0.583514345392339    0.923124108543185  0.0000
  Si     Si        0.534936102954269    0.637874858851941    0.965303029516674  0.0000
  Si     Si        0.312917104107715    0.145445473940927    0.805785868824952  0.0000
  Si     Si        0.194843307420796    0.076374581801888    0.756318926968796  0.0000
  Si     Si        0.243626114920814    0.145534357478933    0.805558299046406  0.0000
  Si     Si        0.075693466365770    0.313465736904898    0.805209048196121  0.0000
  Si     Si        0.144640725630515    0.193778081399981    0.534655303023896  0.0000
  Si     Si        0.034789359104589    0.305882524947953    0.575360394931932  0.0000
  Si     Si        0.249206149400201    0.854417466084989    0.576122492705082  0.0000
  O      O         0.045491920588590    0.110723760843949    0.667505641141791  0.0000
  O      O         0.040710820808167    0.130937571859439    0.722319533878929  0.0000
  O      O         0.045440156495079    0.111297982779853    0.777346840917150  0.0000
  O      O         0.039434725867993    0.093470176214520    0.832863783359987  0.0000
  O      O         0.038755638166914    0.093926361331284    0.388501236279232  0.0000
  O      O         0.545907252089290    0.610396670312840    0.944504649895737  0.0000
  O      O         0.319198181038585    0.110634977429555    0.814191458697279  0.0000
  O      O         0.150483513858195    0.278448883674339    0.795765604566200  0.0000
  O      O         0.110756453478171    0.184635539485624    0.761518384755185  0.0000
  O      O         0.203492156258396    0.070248634317248    0.721589067082648  0.0000
  O      O         0.676777137098705    0.055130486667270    0.167049732235004  0.0000
  O      O         0.767056418671411    0.054964925519240    0.167844579555347  0.0000
  O      O         0.166363824477115    0.277140454762909    0.565775357724975  0.0000
  O      O         0.955619629537856    0.333675219672227    0.554520297661740  0.0000
  O      O         0.944217719196285    0.434577784994236    0.722044814721916  0.0000
  O      O         0.344076016635213    0.166206582538820    0.721807341469388  0.0000
  O      O         0.848427013068766    0.611178373072347    0.758928789312177  0.0000
  O      O         0.741808102690787    0.570347729889597    0.889094951751020  0.0000
  O      O         0.684945187925768    0.040972475579965    0.610001471509913  0.0000
  O      O         0.556100582739450    0.779491174627248    0.155500291007105  0.0000
  O      O         0.999980547705147    0.853158250387144    0.681341943740073  0.0000
  O      O         0.999980374484300    0.296632129162121    0.570086576224904  0.0000
  O      O         0.999980570307374    0.074859960172725    0.653200242991609  0.0000
  O      O         0.999980541944333    0.147563949667455    0.763175633053698  0.0000
  O      O         0.999980394563057    0.075153205000906    0.791440489998904  0.0000
  O      O         0.999980545859849    0.073775120487978    0.873287700550844  0.0000
  O      O         0.499980586053134    0.575111738751171    0.930252304538880  0.0000
  O      O         0.499980374372721    0.645757312740595    0.959425656408684  0.0000
  O      O         0.704028760813612    0.000145159839458    0.649413048728270  0.0000
  O      O         0.553642848593017    0.553807613648637    0.930558200146543  0.0000
  O      O         0.054007354770656    0.054172115453752    0.653966934289896  0.0000
  O      O         0.054214533875706    0.054379293668623    0.789870097356125  0.0000
  O      O         0.055109339071763    0.055274100593023    0.876519519785365  0.0000
  O      O         0.166031745784104    0.166196507265787    0.765442942866319  0.0000
  O      O         0.542313324039631    0.836064332766533    0.164137779290204  0.0000
  O      O         0.321072738709864    0.164923367158128    0.835278745996205  0.0000
  O      O         0.068304309201758    0.224613240347318    0.775588866373722  0.0000
  O      O         0.043587676187449    0.112436885184895    0.887765225986856  0.0000
  O      O         0.223122349042493    0.154326816091477    0.776914997484634  0.0000
  O      O         0.540792059376784    0.628886149347090    0.000056773148702  0.0000
  Si     Si        0.916532549989156    0.034691113301671    0.646259234055937  0.0000
  Si     Si        0.861112944972225    0.035069738967496    0.687364327847645  0.0000
  Si     Si        0.860704077400330    0.035064651274313    0.757169726693725  0.0000
  Si     Si        0.916417677852455    0.034824920952760    0.798130842303214  0.0000
  Si     Si        0.916408411528729    0.034677938193711    0.867530763545876  0.0000
  Si     Si        0.416611539357249    0.534700961302291    0.923124227514769  0.0000
  Si     Si        0.362251040828234    0.535101017709315    0.965303150772299  0.0000
  Si     Si        0.854680131912261    0.313081769807942    0.805785739747015  0.0000
  Si     Si        0.923751225729308    0.195008193674772    0.756318811607206  0.0000
  Si     Si        0.854591458279523    0.243790776816549    0.805558408819522  0.0000
  Si     Si        0.686659859363962    0.075858331405479    0.805209207660379  0.0000
  Si     Si        0.806347766284300    0.144805361380606    0.534655394746849  0.0000
  Si     Si        0.694242998117419    0.034954262129143    0.575360519618445  0.0000
  Si     Si        0.145708134913656    0.249371062548332    0.576122398012111  0.0000
  O      O         0.889402274599346    0.045656660410260    0.667505930699086  0.0000
  O      O         0.869188145619796    0.040875584205422    0.722319684314344  0.0000
  O      O         0.888827438500911    0.045604931828056    0.777347102319680  0.0000
  O      O         0.906655555301490    0.039599507588406    0.832863929356453  0.0000
  O      O         0.906199322845120    0.038920405464680    0.388501421524534  0.0000
  O      O         0.389729448000036    0.546072028143239    0.944504981525884  0.0000
  O      O         0.889490580693606    0.319362944403482    0.814191450756595  0.0000
  O      O         0.721676979628124    0.150648288948746    0.795765631317359  0.0000
  O      O         0.815490188068492    0.110921063615107    0.761518362390735  0.0000
  O      O         0.929877083051951    0.203656913470606    0.721588903140123  0.0000
  O      O         0.944994955713273    0.676941912141826    0.167049417570775  0.0000
  O      O         0.945161073100295    0.767221188781487    0.167844896260796  0.0000
  O      O         0.722985584027128    0.166528896814224    0.565775369116117  0.0000
  O      O         0.666450860372451    0.955784417469412    0.554519955491489  0.0000
  O      O         0.565547932597932    0.944382808029419    0.722045186588554  0.0000
  O      O         0.833919393897416    0.344240808088031    0.721807060037210  0.0000
  O      O         0.388947200651082    0.848591766136137    0.758928827173074  0.0000
  O      O         0.429777984159506    0.741972838460683    0.889094775739418  0.0000
  O      O         0.959153255712692    0.685109957754821    0.610001282614669  0.0000
  O      O         0.220634866627251    0.556265074162326    0.155500320842791  0.0000
  O      O         0.146967462662837    0.000145160556021    0.681341943200797  0.0000
  O      O         0.703493568926681    0.000145340760125    0.570086577072326  0.0000
  O      O         0.925265741367856    0.000145139679935    0.653200240886926  0.0000
  O      O         0.852561757543617    0.000145167090418    0.763175634781472  0.0000
  O      O         0.924972500443523    0.000145314501496    0.791440492893073  0.0000
  O      O         0.926350585903878    0.000145164698135    0.873287701527943  0.0000
  O      O         0.425013937908268    0.500145138041907    0.930252299101291  0.0000
  O      O         0.354368400499634    0.500145350271080    0.959425650838622  0.0000
  O      O         0.999980396635302    0.704193531131674    0.649413046044582  0.0000
  O      O         0.446318478310246    0.553807229484804    0.930558135752984  0.0000
  O      O         0.945953908383352    0.054171798601543    0.653966938635162  0.0000
  O      O         0.945746154911953    0.054379552593511    0.789870063137884  0.0000
  O      O         0.944851826365896    0.055273883089786    0.876519570653944  0.0000
  O      O         0.833929422919720    0.166196287545857    0.765442992454852  0.0000
  O      O         0.164061685973028    0.542478118491855    0.164138095936938  0.0000
  O      O         0.835202105791645    0.321237526829337    0.835278488886386  0.0000
  O      O         0.775512207167246    0.068469109191652    0.775588605093681  0.0000
  O      O         0.887689031511004    0.043752413089812    0.887765435787612  0.0000
  O      O         0.845798940200647    0.223286892897540    0.776915214229804  0.0000
  O      O         0.371239564827296    0.540956849161985    0.000056961977256  0.0000
  Si     Si        0.965434463262128    0.916697162796947    0.646259111030830  0.0000
  Si     Si        0.965056069132269    0.861277559104904    0.687364225109531  0.0000
  Si     Si        0.965060967020111    0.860868972105514    0.757169628501634  0.0000
  Si     Si        0.965300900223094    0.916582563678181    0.798130749572957  0.0000
  Si     Si        0.965447675007328    0.916573068090348    0.867530662320754  0.0000
  Si     Si        0.465424591244735    0.416776164314735    0.923124096513925  0.0000
  Si     Si        0.465024840800343    0.362415640151398    0.965303002936191  0.0000
  Si     Si        0.687043842420872    0.854844994917844    0.805785866752171  0.0000
  Si     Si        0.805117637809434    0.923915890594646    0.756318930026584  0.0000
  Si     Si        0.756334830877104    0.854756111548310    0.805558298665311  0.0000
  Si     Si        0.924267477923414    0.686824737641248    0.805209054339550  0.0000
  Si     Si        0.855320218650031    0.806512395353215    0.534655300358484  0.0000
  Si     Si        0.965171585055800    0.694407949405587    0.575360394019716  0.0000
  Si     Si        0.750754799023739    0.145873014002649    0.576122496886476  0.0000
  O      O         0.954469025484498    0.889566714739600    0.667505644088793  0.0000
  O      O         0.959250126237710    0.869352902290284    0.722319536623945  0.0000
  O      O         0.954520791082981    0.888992486597129    0.777346845535353  0.0000
  O      O         0.960526220735724    0.906820294738617    0.832863787483519  0.0000
  O      O         0.961205299053757    0.906364123776490    0.388501237626042  0.0000
  O      O         0.454053683890869    0.389893831679908    0.944504632557713  0.0000
  O      O         0.680762767124995    0.889655491638284    0.814191455100088  0.0000
  O      O         0.849477430833580    0.721841592499018    0.795765611363821  0.0000
  O      O         0.889204493574167    0.815654933494078    0.761518383276990  0.0000
  O      O         0.796468787577940    0.930041838700672    0.721589070342264  0.0000
  O      O         0.323183797898685    0.945160019394928    0.167049747223971  0.0000
  O      O         0.232904510716954    0.945325591861863    0.167844605583951  0.0000
  O      O         0.833597121243523    0.723150020963855    0.565775354867663  0.0000
  O      O         0.044341315112279    0.666615259091659    0.554520292996682  0.0000
  O      O         0.055743229945179    0.565712694605800    0.722044813012138  0.0000
  O      O         0.655884930265392    0.834083896174194    0.721807337197416  0.0000
  O      O         0.151533936573009    0.389112107131774    0.758928794844846  0.0000
  O      O         0.258152840666177    0.429942751203833    0.889094943978283  0.0000
  O      O         0.315015760396170    0.959317999814942    0.610001467791197  0.0000
  O      O         0.443860265250711    0.220799288567056    0.155500236102340  0.0000
  O      O         0.999980398145213    0.147132224425568    0.681341942174560  0.0000
  O      O         0.999980569272954    0.703658346269781    0.570086575463485  0.0000
  O      O         0.999980375236935    0.925430514522828    0.653200243019378  0.0000
  O      O         0.999980405914122    0.852726521054113    0.763175634021335  0.0000
  O      O         0.999980552121473    0.925137265850475    0.791440494064380  0.0000
  O      O         0.999980401148155    0.926515353642554    0.873287702821482  0.0000
  O      O         0.499980338660668    0.425178790576965    0.930252292470522  0.0000
  O      O         0.499980572553278    0.354533202100438    0.959425624691270  0.0000
  O      O         0.295932187845150    0.000145314358110    0.649413044562595  0.0000
  O      O         0.446318084684444    0.446482893504495    0.930558197510931  0.0000
  O      O         0.945953590577739    0.946118359462929    0.653966934813392  0.0000
  O      O         0.945746413054272    0.945911176284310    0.789870100573135  0.0000
  O      O         0.944851606707942    0.945016372503415    0.876519521742280  0.0000
  O      O         0.833929201435679    0.834093966168162    0.765442940847548  0.0000
  O      O         0.457647501139313    0.164226137176050    0.164137738351228  0.0000
  O      O         0.678888205691182    0.835367104156311    0.835278744503682  0.0000
  O      O         0.931656635276153    0.775677230537902    0.775588865738362  0.0000
  O      O         0.956373272221675    0.887853589634983    0.887765231771187  0.0000
  O      O         0.776838597831907    0.845963651152538    0.776914998449364  0.0000
  O      O         0.459168879103086    0.371404341332442    0.000056747745351  0.0000
  Si     Si        0.916532546089983    0.965599370897263    0.353854505944240  0.0000
  Si     Si        0.861112935807321    0.965220744533305    0.312749418076183  0.0000
  Si     Si        0.860704063858137    0.965225834494867    0.242944017695775  0.0000
  Si     Si        0.916417672469939    0.965465558815824    0.201982912721534  0.0000
  Si     Si        0.916408409117998    0.965612541024877    0.132582990110500  0.0000
  Si     Si        0.416611534771505    0.465589532623840    0.076989496132586  0.0000
  Si     Si        0.362251034606339    0.465189489534098    0.034810575656077  0.0000
  Si     Si        0.854680121310966    0.687208705796545    0.194328004839886  0.0000
  Si     Si        0.923751217102772    0.805282285051812    0.243794939676878  0.0000
  Si     Si        0.854591450854719    0.756499700090959    0.194555342251944  0.0000
  Si     Si        0.686659848260601    0.924432143133385    0.194904534091061  0.0000
  Si     Si        0.806347764429951    0.855485117761764    0.465458347026802  0.0000
  Si     Si        0.694243000292876    0.965336228514503    0.424753219915920  0.0000
  Si     Si        0.145708134792568    0.750919411968284    0.423991352853120  0.0000
  O      O         0.889402269354728    0.954633824077937    0.332607810542973  0.0000
  O      O         0.869188132070659    0.959414904447127    0.277794060250602  0.0000
  O      O         0.888827426980507    0.954685552155556    0.222766646453915  0.0000
  O      O         0.906655555410544    0.960690972525712    0.167249824566063  0.0000
  O      O         0.906199328227366    0.961370077910970    0.611612320894136  0.0000
  O      O         0.389729446309515    0.454218473269794    0.055608734533045  0.0000
  O      O         0.889490571203378    0.680927533802172    0.185922294842750  0.0000
  O      O         0.721676970579540    0.849642191597824    0.204348110294505  0.0000
  O      O         0.815490182566722    0.889369415207440    0.238595383744307  0.0000
  O      O         0.929877074906434    0.796633568009399    0.278524848505912  0.0000
  O      O         0.944994961305367    0.323348565230137    0.833064338968393  0.0000
  O      O         0.945161078647988    0.233069286065388    0.832268859452373  0.0000
  O      O         0.722985576551712    0.833761591269741    0.434338378319759  0.0000
  O      O         0.666450858327432    0.044506067045700    0.445593790944528  0.0000
  O      O         0.565547903631721    0.055907640204156    0.278068487534331  0.0000
  O      O         0.833919381534563    0.656049668773918    0.278306685002928  0.0000
  O      O         0.388947205650471    0.151698726245253    0.241184918643609  0.0000
  O      O         0.429777972626210    0.258317657722738    0.111018941277888  0.0000
  O      O         0.959153255342514    0.315180519342302    0.390112467908913  0.0000
  O      O         0.220634856153612    0.444025402123200    0.844613425781377  0.0000
  O      O         0.146967464087504    0.000145318001472    0.318771809656941  0.0000
  O      O         0.703493570592175    0.000145150478150    0.430027157162596  0.0000
  O      O         0.925265732849695    0.000145345957163    0.346913498641545  0.0000
  O      O         0.852561740354442    0.000145318307433    0.236938106664845  0.0000
  O      O         0.924972495269401    0.000145164877099    0.208673264451140  0.0000
  O      O         0.926350584770541    0.000145314096294    0.126826051193791  0.0000
  O      O         0.425013953119683    0.500145352685493    0.069861428527092  0.0000
  O      O         0.354368408269901    0.500145159614883    0.040688077857151  0.0000
  O      O         0.999980391981806    0.296096943062843    0.350700701700487  0.0000
  O      O         0.446318468027947    0.446483253140085    0.069555596462393  0.0000
  O      O         0.945953904543657    0.946118684597483    0.346146801516913  0.0000
  O      O         0.945746146383052    0.945910923958678    0.210243696659825  0.0000
  O      O         0.944851822278468    0.945016594718218    0.123594180996298  0.0000
  O      O         0.833929412497724    0.834094187570180    0.234670754755941  0.0000
  O      O         0.164061678581182    0.457812364082295    0.835975654359765  0.0000
  O      O         0.835202093021853    0.679052948026863    0.164835255996345  0.0000
  O      O         0.775512196722339    0.931821367220327    0.224525142582315  0.0000
  O      O         0.887689026825888    0.956538066413630    0.112348320933861  0.0000
  O      O         0.845798934497334    0.777003581052358    0.223198539685464  0.0000
  O      O         0.371239548958224    0.459333654858465    0.000056763150122  0.0000
  Si     Si        0.034526478664674    0.916697167978906    0.353854634605220  0.0000
  Si     Si        0.034904872047058    0.861277557339429    0.312749529806374  0.0000
  Si     Si        0.034899975940567    0.860868974339971    0.242944124400759  0.0000
  Si     Si        0.034660041817129    0.916582572598198    0.201983011344187  0.0000
  Si     Si        0.034513267599217    0.916573072470727    0.132583097335216  0.0000
  Si     Si        0.534536329061212    0.416776147020951    0.076989626527744  0.0000
  Si     Si        0.534936104797996    0.362415643432709    0.034810684856138  0.0000
  Si     Si        0.312917108648423    0.854845004193443    0.194327883630114  0.0000
  Si     Si        0.194843309056806    0.923915893285030    0.243794822528117  0.0000
  Si     Si        0.243626120230853    0.854756117356787    0.194555455202272  0.0000
  Si     Si        0.075693467630274    0.686824738945474    0.194904705321508  0.0000
  Si     Si        0.144640726627386    0.806512396987412    0.465458442693089  0.0000
  Si     Si        0.034789359275514    0.694407950855700    0.424753355666751  0.0000
  Si     Si        0.249206147809343    0.145873016566175    0.423991253739953  0.0000
  O      O         0.045491915576012    0.889566715650427    0.332608106675478  0.0000
  O      O         0.040710812442470    0.869352898338284    0.277794217921847  0.0000
  O      O         0.045440150063081    0.888992494569276    0.222766914529020  0.0000
  O      O         0.039434720672720    0.906820303916517    0.167249973406981  0.0000
  O      O         0.038755643419289    0.906364112596533    0.611612506424542  0.0000
  O      O         0.545907246036248    0.389893833255297    0.055609070782336  0.0000
  O      O         0.319198184967184    0.889655500713849    0.185922292554055  0.0000
  O      O         0.150483514694712    0.721841593227969    0.204348147844148  0.0000
  O      O         0.110756454759917    0.815654940603646    0.238595367424509  0.0000
  O      O         0.203492155298773    0.930041841884861    0.278524682724732  0.0000
  O      O         0.676777149308744    0.945160002393191    0.833064012043752  0.0000
  O      O         0.767056442789484    0.945325581200754    0.832269155999831  0.0000
  O      O         0.166363825201989    0.723150021083796    0.434338394938169  0.0000
  O      O         0.955619628561642    0.666615257169848    0.445593453048295  0.0000
  O      O         0.944217709749003    0.565712693053444    0.278068943603616  0.0000
  O      O         0.344076024262512    0.834083893901562    0.278306407773694  0.0000
  O      O         0.848427006371415    0.389112109046070    0.241184954110111  0.0000
  O      O         0.741808081078323    0.429942768103893    0.111018784151424  0.0000
  O      O         0.684945184445649    0.959318014659169    0.390112268804988  0.0000
  O      O         0.556100573106355    0.220799302566068    0.844613411392312  0.0000
  O      O         0.999980545521081    0.147132237250655    0.318771808580781  0.0000
  O      O         0.999980374621485    0.703658345599440    0.430027174577696  0.0000
  O      O         0.999980567596250    0.925430522558639    0.346913500716105  0.0000
  O      O         0.999980538080725    0.852726521361022    0.236938113790075  0.0000
  O      O         0.999980389723832    0.925137276241039    0.208673266263130  0.0000
  O      O         0.999980542098100    0.926515358987300    0.126826054485188  0.0000
  O      O         0.499980571461476    0.425178740743507    0.069861441751048  0.0000
  O      O         0.499980377292097    0.354533187008193    0.040688056431298  0.0000
  O      O         0.704028748197607    0.000145337083160    0.350700691343646  0.0000
  O      O         0.553642820949148    0.446482892444757    0.069555543101349  0.0000
  O      O         0.054007354045862    0.946118361693473    0.346146806152926  0.0000
  O      O         0.054214531490378    0.945911183945402    0.210243660691061  0.0000
  O      O         0.055109337678331    0.945016374305731    0.123594234081079  0.0000
  O      O         0.166031749233293    0.834093967695809    0.234670809086721  0.0000
  O      O         0.542313308310182    0.164226142700499    0.835975970210553  0.0000
  O      O         0.321072741588225    0.835367112095257    0.164835005825382  0.0000
  O      O         0.068304313944971    0.775677235297632    0.224524889416570  0.0000
  O      O         0.043587668983236    0.887853590352927    0.112348532266968  0.0000
  O      O         0.223122353397712    0.845963657623027    0.223198755851873  0.0000
  O      O         0.540792073692387    0.371404336473996    0.000056939764679  0.0000
  Si     Si        0.965434456897141    0.083593318791512    0.353854632372220  0.0000
  Si     Si        0.965056067281726    0.139012928188858    0.312749524144587  0.0000
  Si     Si        0.965060962992961    0.139421509159836    0.242944119411042  0.0000
  Si     Si        0.965300899422718    0.083707911461924    0.201983005090796  0.0000
  Si     Si        0.965447674058745    0.083717410144518    0.132583090979356  0.0000
  Si     Si        0.465424608844759    0.583514335395389    0.076989630220207  0.0000
  Si     Si        0.465024831570260    0.637874846978772    0.034810712318010  0.0000
  Si     Si        0.687043808084133    0.145445502620407    0.194327865883953  0.0000
  Si     Si        0.805117625269205    0.076374602316090    0.243794804047979  0.0000
  Si     Si        0.756334794521273    0.145534395408994    0.194555449552128  0.0000
  Si     Si        0.924267479569967    0.313465739414858    0.194904703064168  0.0000
  Si     Si        0.855320215818438    0.193778085407562    0.465458444969251  0.0000
  Si     Si        0.965171585026893    0.305882524983027    0.424753355419051  0.0000
  Si     Si        0.750754792333912    0.854417472768408    0.423991249894513  0.0000
  O      O         0.954469023161407    0.110723773228699    0.332608105374488  0.0000
  O      O         0.959250127246519    0.130937583194255    0.277794212754523  0.0000
  O      O         0.954520791624533    0.111297989178523    0.222766908209634  0.0000
  O      O         0.960526221281050    0.093470180146557    0.167249966876339  0.0000
  O      O         0.961205300990175    0.093926361170848    0.611612506267081  0.0000
  O      O         0.454053683009524    0.610396653949742    0.055609087497799  0.0000
  O      O         0.680762737205212    0.110635004326412    0.185922276260532  0.0000
  O      O         0.849477427229978    0.278448895250872    0.204348128175239  0.0000
  O      O         0.889204477342635    0.184635538202183    0.238595360686547  0.0000
  O      O         0.796468774172238    0.070248649441245    0.278524662614717  0.0000
  O      O         0.323183795571272    0.055130460549012    0.833064004901603  0.0000
  O      O         0.232904501165496    0.054964881469934    0.832269144346927  0.0000
  O      O         0.833597117149386    0.277140459748710    0.434338386851914  0.0000
  O      O         0.044341313185927    0.333675219144135    0.445593453478861  0.0000
  O      O         0.055743234319359    0.434577784463068    0.278068942840774  0.0000
  O      O         0.655884908898078    0.166206611356283    0.278306390120301  0.0000
  O      O         0.151533934956961    0.611178371287075    0.241184960252624  0.0000
  O      O         0.258152852546615    0.570347728805285    0.111018802184880  0.0000
  O      O         0.315015768052867    0.040972481049614    0.390112267916239  0.0000
  O      O         0.443860373447335    0.779491162280686    0.844613461925629  0.0000
  O      O         0.999980393535382    0.853158248786781    0.318771814272382  0.0000
  O      O         0.999980569497639    0.296632127878827    0.430027173651714  0.0000
  O      O         0.999980367823660    0.074859961032358    0.346913499451321  0.0000
  O      O         0.999980400701808    0.147563965630338    0.236938110665243  0.0000
  O      O         0.999980551050597    0.075153206296878    0.208673260609332  0.0000
  O      O         0.999980399903618    0.073775124592104    0.126826048592057  0.0000
  O      O         0.499980363549608    0.575111746514891    0.069861429215669  0.0000
  O      O         0.499980559300461    0.645757303735262    0.040688087513640  0.0000
  O      O         0.295932191848979    0.000145166798764    0.350700693668269  0.0000
  O      O         0.446318119973253    0.553807590214972    0.069555541493934  0.0000
  O      O         0.945953575522496    0.054172129157459    0.346146802143654  0.0000
  O      O         0.945746408466954    0.054379301867931    0.210243656143232  0.0000
  O      O         0.944851603558700    0.055274107473938    0.123594230781743  0.0000
  O      O         0.833929175968894    0.166196529637019    0.234670796038179  0.0000
  O      O         0.457647625711021    0.836064317830356    0.835975957299323  0.0000
  O      O         0.678888182448477    0.164923391120985    0.164834983414738  0.0000
  O      O         0.931656614554436    0.224613240835314    0.224524871464947  0.0000
  O      O         0.956373272586179    0.112436890210500    0.112348522635046  0.0000
  O      O         0.776838569191305    0.154326844380484    0.223198749106151  0.0000
  O      O         0.459168876881362    0.628886141608170    0.000056966979465  0.0000
  Si     Si        0.646182706295887    0.916697157033165    0.965510869316526  0.0000
  Si     Si        0.687287817150848    0.861277550421911    0.965132476910155  0.0000
  Si     Si        0.757093222655521    0.860868975507584    0.965137371345729  0.0000
  Si     Si        0.798054338847001    0.916582570716475    0.965377310522397  0.0000
  Si     Si        0.867454252545412    0.916573068378019    0.965524083813506  0.0000
  Si     Si        0.923047716143868    0.416776138478820    0.465501013022491  0.0000
  Si     Si        0.965226632969496    0.362415625201763    0.465101237536409  0.0000
  Si     Si        0.805709462754144    0.854844999088280    0.687120243243724  0.0000
  Si     Si        0.756242528687123    0.923915888300756    0.805194045523170  0.0000
  Si     Si        0.805481896928661    0.854756113884691    0.756411230834992  0.0000
  Si     Si        0.805132653475380    0.686824740807406    0.924343878326550  0.0000
  Si     Si        0.534578902714534    0.806512388099855    0.855396621322308  0.0000
  Si     Si        0.575283993633167    0.694407953887457    0.965247992188552  0.0000
  Si     Si        0.576046096181614    0.145873014392721    0.750831210301321  0.0000
  O      O         0.667429232762887    0.889566703434244    0.954545431840739  0.0000
  O      O         0.722243128071534    0.869352896957133    0.959326533811112  0.0000
  O      O         0.777270431187379    0.888992497392692    0.954597198374908  0.0000
  O      O         0.832787376289237    0.906820298406037    0.960602630638465  0.0000
  O      O         0.388424834440842    0.906364112909820    0.961281708904998  0.0000
  O      O         0.944428263197333    0.389893822513091    0.454130088384110  0.0000
  O      O         0.814115051086080    0.889655495977544    0.680839168446870  0.0000
  O      O         0.795689215311185    0.721841593577337    0.849553836951399  0.0000
  O      O         0.761441987855301    0.815654937442114    0.889280895176515  0.0000
  O      O         0.721512668631152    0.930041838271592    0.796545198620691  0.0000
  O      O         0.166973341020010    0.945160012961114    0.323260199492327  0.0000
  O      O         0.167768203557277    0.945325591400039    0.232980906611872  0.0000
  O      O         0.565698960371452    0.723150017277483    0.833673524299996  0.0000
  O      O         0.554443895499197    0.666615248851775    0.044417711256549  0.0000
  O      O         0.721968410730648    0.565712688475964    0.055819646387617  0.0000
  O      O         0.721730935088694    0.834083898055999    0.655961326723713  0.0000
  O      O         0.758852396831642    0.389112134796667    0.151610322752745  0.0000
  O      O         0.889018546508384    0.429942747148347    0.258229260646038  0.0000
  O      O         0.609925063046822    0.959318017926762    0.315092149859263  0.0000
  O      O         0.155423889250188    0.220799310838623    0.443936776122115  0.0000
  Si     Si        0.083428385876991    0.646347609314660    0.965511005914440  0.0000
  Si     Si        0.138847997771915    0.687452695458188    0.965132378612397  0.0000
  Si     Si        0.139256870884793    0.757258096010014    0.965137465878912  0.0000
  Si     Si        0.083543264715732    0.798219204595368    0.965377196344377  0.0000
  Si     Si        0.083552530819616    0.867619127618709    0.965524180825866  0.0000
  Si     Si        0.583349396379862    0.923212607099558    0.465501160991325  0.0000
  Si     Si        0.637709900943070    0.965391526389062    0.465101112533925  0.0000
  Si     Si        0.145280820037490    0.805874117089309    0.687120338458637  0.0000
  Si     Si        0.076209722345372    0.756407180893105    0.805193916900678  0.0000
  Si     Si        0.145369492892952    0.805646775957702    0.756411331755906  0.0000
  Si     Si        0.313301088282899    0.805297576496837    0.924343776869544  0.0000
  Si     Si        0.193613168724331    0.534743766302614    0.855396746565973  0.0000
  Si     Si        0.305717930426793    0.575448891310615    0.965247854526944  0.0000
  Si     Si        0.854252817277637    0.576210765695189    0.750831038823405  0.0000
  O      O         0.110558663706416    0.667594303363285    0.954545459946122  0.0000
  O      O         0.130772801721432    0.722408053298500    0.959326536900279  0.0000
  O      O         0.111133507902288    0.777435469409172    0.954597186855565  0.0000
  O      O         0.093305384275054    0.832952292706441    0.960602612711305  0.0000
  O      O         0.093761610931016    0.388589796609447    0.961281719917779  0.0000
  O      O         0.610231492246134    0.944593359807690    0.454130103089084  0.0000
  O      O         0.110470370217431    0.814279826909657    0.680839166422076  0.0000
  O      O         0.278283972468271    0.795853995355955    0.849553819599073  0.0000
  O      O         0.184470755310160    0.761606732545478    0.889281046113161  0.0000
  O      O         0.070083861423426    0.721677272678219    0.796545197988242  0.0000
  O      O         0.054965988764532    0.167137772090896    0.323260204571340  0.0000
  O      O         0.054799870190249    0.167933253686342    0.232980925642464  0.0000
  O      O         0.276975357113808    0.565863733354650    0.833673216437272  0.0000
  O      O         0.333510079432407    0.554608328069451    0.044417691322872  0.0000
  O      O         0.434413010577103    0.722133542747889    0.055819306644618  0.0000
  O      O         0.166041562012287    0.721895438067116    0.655961304239398  0.0000
  O      O         0.611013751706305    0.759017189797849    0.151610345363796  0.0000
  O      O         0.570182955168395    0.889183135339096    0.258229271416352  0.0000
  O      O         0.040807688146179    0.610089649772612    0.315092167197336  0.0000
  O      O         0.779326071315078    0.155588685982682    0.443937033963891  0.0000
  Si     Si        0.353778233740974    0.083593325270632    0.965510852556747  0.0000
  Si     Si        0.312673126408654    0.139012933379000    0.965132467709590  0.0000
  Si     Si        0.242867720512478    0.139421504555490    0.965137364095574  0.0000
  Si     Si        0.201906606668338    0.083707907056614    0.965377302663890  0.0000
  Si     Si        0.132506692606266    0.083717408229456    0.965524078462727  0.0000
  Si     Si        0.076913228074051    0.583514336974014    0.465501013238696  0.0000
  Si     Si        0.034734310605410    0.637874849337046    0.465101234823863  0.0000
  Si     Si        0.194251482212103    0.145445473888480    0.687120242716567  0.0000
  Si     Si        0.243718417302442    0.076374582452379    0.805194041279649  0.0000
  Si     Si        0.194479047953435    0.145534357146818    0.756411230862913  0.0000
  Si     Si        0.194828293598604    0.313465739915963    0.924343873629648  0.0000
  Si     Si        0.465382042343508    0.193778095710629    0.855396605036978  0.0000
  Si     Si        0.424676950661713    0.305882544464761    0.965247960531456  0.0000
  Si     Si        0.423914853229101    0.854417460269228    0.750831203262148  0.0000
  O      O         0.332531708773508    0.110723780934833    0.954545416379561  0.0000
  O      O         0.277717815447801    0.130937587078084    0.959326524242758  0.0000
  O      O         0.222690513202642    0.111297981580655    0.954597191553013  0.0000
  O      O         0.167173568716801    0.093470177526588    0.960602623416817  0.0000
  O      O         0.611536121113605    0.093926380032266    0.961281678764831  0.0000
  O      O         0.055532679298244    0.610396650700466    0.454130086732543  0.0000
  O      O         0.185845893341292    0.110634977420133    0.680839165592743  0.0000
  O      O         0.204271735694085    0.278448885266574    0.849553830733333  0.0000
  O      O         0.238518956939800    0.184635541612519    0.889280890395750  0.0000
  O      O         0.278448277843658    0.070248635742079    0.796545194713906  0.0000
  O      O         0.832987581741937    0.055130470391274    0.323260186147758  0.0000
  O      O         0.832192735749830    0.054964904308638    0.232980896531521  0.0000
  O      O         0.434261985375554    0.277140469389709    0.833673519651058  0.0000
  O      O         0.445517037237957    0.333675247148665    0.044417689073023  0.0000
  O      O         0.277992525093048    0.434577800308590    0.055819639320618  0.0000
  O      O         0.278230011127276    0.166206578275220    0.655961330878481  0.0000
  O      O         0.241108549443894    0.611178367682395    0.151610344009694  0.0000
  O      O         0.110942395531313    0.570347729346857    0.258229262087838  0.0000
  O      O         0.390035877384149    0.040972478333996    0.315092142771195  0.0000
  O      O         0.844537054473924    0.779491164243132    0.443936775051442  0.0000
  Si     Si        0.916532569115894    0.353942871616368    0.965511003264895  0.0000
  Si     Si        0.861112964462833    0.312837778563469    0.965132361740359  0.0000
  Si     Si        0.860704071696822    0.243032379388703    0.965137458781962  0.0000
  Si     Si        0.916417676514631    0.202071268645172    0.965377187975077  0.0000
  Si     Si        0.916408418023174    0.132671345836599    0.965524173329686  0.0000
  Si     Si        0.416611563972279    0.077077875874414    0.465501161851178  0.0000
  Si     Si        0.362251055068810    0.034898958983165    0.465101110619138  0.0000
  Si     Si        0.854680126022037    0.194416358950333    0.687120339155015  0.0000
  Si     Si        0.923751227680139    0.243883297134303    0.805193912517303  0.0000
  Si     Si        0.854591456663678    0.194643695593737    0.756411333270667  0.0000
  Si     Si        0.686659853459327    0.194992903776568    0.924343764318860  0.0000
  Si     Si        0.806347777204920    0.465546725109280    0.855396743737868  0.0000
  Si     Si        0.694243009052520    0.424841606919971    0.965247836683952  0.0000
  Si     Si        0.145708131040859    0.424079714280460    0.750831043255483  0.0000
  O      O         0.889402304713283    0.332696165291865    0.954545449487111  0.0000
  O      O         0.869188153910242    0.277882418460627    0.959326525069019  0.0000
  O      O         0.888827427511482    0.222854996112562    0.954597178927945  0.0000
  O      O         0.906655562227520    0.167338179529151    0.960602604068052  0.0000
  O      O         0.906199340043068    0.611700686421015    0.961281724039916  0.0000
  O      O         0.389729470356145    0.055697119478435    0.454130104756955  0.0000
  O      O         0.889490575500755    0.186010649181424    0.680839164894900  0.0000
  O      O         0.721676980579972    0.204436477792889    0.849553808884264  0.0000
  O      O         0.815490187469930    0.238683758617438    0.889281041269820  0.0000
  O      O         0.929877089226134    0.278613205353708    0.796545193225260  0.0000
  O      O         0.944994951550652    0.833152710432294    0.323260208492940  0.0000
  O      O         0.945161069895115    0.832357230534023    0.232980928068379  0.0000
  O      O         0.722985584992713    0.434426755736763    0.833673217770326  0.0000
  O      O         0.666450855844361    0.445682157725103    0.044417683192770  0.0000
  O      O         0.565547903923480    0.278156876380678    0.055819022480365  0.0000
  O      O         0.833919384243354    0.278395041999213    0.655961306381785  0.0000
  O      O         0.388947151913976    0.241273348226838    0.151610297155546  0.0000
  O      O         0.429777997192863    0.111107354493763    0.258229250559667  0.0000
  O      O         0.959153255463486    0.390200828688507    0.315092163400745  0.0000
  O      O         0.220634873992193    0.844701802124556    0.443937032892261  0.0000
  Si     Si        0.646182708367701    0.083593324485178    0.034602871554789  0.0000
  Si     Si        0.687287821827705    0.139012925271477    0.034981263752243  0.0000
  Si     Si        0.757093228521290    0.139421511909155    0.034976385544550  0.0000
  Si     Si        0.798054343958934    0.083707915615481    0.034736442030850  0.0000
  Si     Si        0.867454257594281    0.083717409814831    0.034589673657036  0.0000
  Si     Si        0.923047717984417    0.583514335927557    0.534612735525915  0.0000
  Si     Si        0.965226634400562    0.637874848893919    0.535012512638527  0.0000
  Si     Si        0.805709454371107    0.145445484122432    0.312993496746867  0.0000
  Si     Si        0.756242509656803    0.076374619162153    0.194919690992466  0.0000
  Si     Si        0.805481874458867    0.145534379107850    0.243702508572661  0.0000
  Si     Si        0.805132649655724    0.313465747179781    0.075769856270570  0.0000
  Si     Si        0.534578796822665    0.193778198066274    0.144717045136209  0.0000
  Si     Si        0.575283993943528    0.305882571758958    0.034865634418820  0.0000
  Si     Si        0.576046092625851    0.854417462185963    0.249282538827289  0.0000
  O      O         0.667429244642006    0.110723768704333    0.045568311581683  0.0000
  O      O         0.722243133146009    0.130937587398471    0.040787212141099  0.0000
  O      O         0.777270437597185    0.111297989219290    0.045516554951977  0.0000
  O      O         0.832787382115213    0.093470186213407    0.039511121550175  0.0000
  O      O         0.388424831038956    0.093926358189304    0.038832033276884  0.0000
  O      O         0.944428266500074    0.610396650105316    0.545983661660963  0.0000
  O      O         0.814115037604801    0.110634985564089    0.319274569445983  0.0000
  O      O         0.795689209358540    0.278448913661636    0.150559907844686  0.0000
  O      O         0.761441936141525    0.184635579007340    0.110832865242992  0.0000
  O      O         0.721512650570241    0.070248670729066    0.203568544049192  0.0000
  O      O         0.166973339701187    0.055130464181788    0.676853551720628  0.0000
  O      O         0.167768203563565    0.054964881034570    0.767132841348979  0.0000
  O      O         0.565698956458343    0.277140677769397    0.166440064210887  0.0000
  O      O         0.554443939234688    0.333675336849177    0.955695901870649  0.0000
  O      O         0.721968414090136    0.434577806836832    0.944294098244615  0.0000
  O      O         0.721730937094268    0.166206603534711    0.344152415537718  0.0000
  O      O         0.758852393224858    0.611178375944843    0.848503413143771  0.0000
  O      O         0.889018555962095    0.570347732369675    0.741884491440508  0.0000
  O      O         0.609925067596742    0.040972471127420    0.685021592128715  0.0000
  O      O         0.155423889021384    0.779491162502045    0.556176967379595  0.0000
  Si     Si        0.916532555205347    0.646347602451578    0.034602754251846  0.0000
  Si     Si        0.861112943887156    0.687452690622156    0.034981382020879  0.0000
  Si     Si        0.860704075997588    0.757258090787266    0.034976294940575  0.0000
  Si     Si        0.916417678600476    0.798219204751862    0.034736566415615  0.0000
  Si     Si        0.916408409943267    0.867619127056748    0.034589582801890  0.0000
  Si     Si        0.416611552189373    0.923212603312069    0.534612584753921  0.0000
  Si     Si        0.362251044556063    0.965391519771856    0.535012628734600  0.0000
  Si     Si        0.854680118550623    0.805874119193871    0.312993412502599  0.0000
  Si     Si        0.923751219952001    0.756407178694721    0.194919841820316  0.0000
  Si     Si        0.854591448276360    0.805646781798822    0.243702417357153  0.0000
  Si     Si        0.686659855289013    0.805297571361967    0.075769977492522  0.0000
  Si     Si        0.806347786828670    0.534743774517011    0.144716993602947  0.0000
  Si     Si        0.694243011048618    0.575448880852324    0.034865896984195  0.0000
  Si     Si        0.145708133353449    0.576210763191892    0.249282709824632  0.0000
  O      O         0.889402275439486    0.667594294286163    0.045568300209672  0.0000
  O      O         0.869188143862225    0.722408047728251    0.040787225367326  0.0000
  O      O         0.888827438278293    0.777435464918518    0.045516574930777  0.0000
  O      O         0.906655555107193    0.832952292120479    0.039511151077662  0.0000
  O      O         0.906199337393219    0.388589789533254    0.038832034657456  0.0000
  O      O         0.389729452349473    0.944593352851844    0.545983640085889  0.0000
  O      O         0.889490567830397    0.814279829954956    0.319274587575795  0.0000
  O      O         0.721676974358613    0.795854000159036    0.150559937981772  0.0000
  O      O         0.815490185308709    0.761606732889453    0.110832708664098  0.0000
  O      O         0.929877078769228    0.721677270333245    0.203568562905925  0.0000
  O      O         0.944994960105212    0.167137770487005    0.676853544228051  0.0000
  O      O         0.945161077446875    0.167933246740437    0.767132821596101  0.0000
  O      O         0.722985604918170    0.565863731043593    0.166440543353765  0.0000
  O      O         0.666450897901802    0.554608302137397    0.955696049189752  0.0000
  O      O         0.565547937139078    0.722133553389094    0.944294447598563  0.0000
  O      O         0.833919383287139    0.721895433331577    0.344152442134518  0.0000
  O      O         0.388947198933777    0.759017192104718    0.848503408979101  0.0000
  O      O         0.429777984867942    0.889183136962513    0.741884481477828  0.0000
  O      O         0.959153253906047    0.610089654171300    0.685021587034980  0.0000
  O      O         0.220634867345475    0.155588678218079    0.556176716045835  0.0000
  Si     Si        0.353778238641452    0.916697156936553    0.034602891559500  0.0000
  Si     Si        0.312673125917309    0.861277551751490    0.034981281471962  0.0000
  Si     Si        0.242867720670197    0.860868971060917    0.034976386947388  0.0000
  Si     Si        0.201906604046619    0.916582566717501    0.034736452222994  0.0000
  Si     Si        0.132506690335201    0.916573068689470    0.034589678121222  0.0000
  Si     Si        0.076913226950936    0.416776139166531    0.534612737807135  0.0000
  Si     Si        0.034734310786392    0.362415625865907    0.535012514324242  0.0000
  Si     Si        0.194251484385088    0.854845002317691    0.312993509937898  0.0000
  Si     Si        0.243718422540029    0.923915892794935    0.194919711669827  0.0000
  Si     Si        0.194479051588678    0.854756117468740    0.243702521274111  0.0000
  Si     Si        0.194828289999847    0.686824737658057    0.075769878819106  0.0000
  Si     Si        0.465382048457566    0.806512385628033    0.144717131240778  0.0000
  Si     Si        0.424676948484190    0.694407946525563    0.034865759550519  0.0000
  Si     Si        0.423914859728148    0.145873032515985    0.249282538368866  0.0000
  O      O         0.332531710066261    0.889566704504328    0.045568327486576  0.0000
  O      O         0.277717814498801    0.869352896820544    0.040787224133592  0.0000
  O      O         0.222690509289049    0.888992490412290    0.045516561078251  0.0000
  O      O         0.167173565999611    0.906820296915663    0.039511131729770  0.0000
  O      O         0.611536107368007    0.906364119144575    0.038832057835593  0.0000
  O      O         0.055532679445770    0.389893824101628    0.545983663629372  0.0000
  O      O         0.185845894195720    0.889655498977895    0.319274585418167  0.0000
  O      O         0.204271736536033    0.721841590768485    0.150559924049191  0.0000
  O      O         0.238518964146429    0.815654932753510    0.110832863002518  0.0000
  O      O         0.278448282593473    0.930041840065391    0.203568560775612  0.0000
  O      O         0.832987605730103    0.945160008141463    0.676853554874838  0.0000
  O      O         0.832192745141498    0.945325588318364    0.767132841804357  0.0000
  O      O         0.434261990475912    0.723150006935857    0.166440225124885  0.0000
  O      O         0.445517031520585    0.666615240035389    0.955696031245129  0.0000
  O      O         0.277992527177714    0.565712694224105    0.944294112583502  0.0000
  O      O         0.278230015616104    0.834083899945041    0.344152419122407  0.0000
  O      O         0.241108542646918    0.389112111060752    0.848503400277313  0.0000
  O      O         0.110942392167146    0.429942745315038    0.741884495106739  0.0000
  O      O         0.390035878898845    0.959317998977505    0.685021595006102  0.0000
  O      O         0.844537055635036    0.220799310292448    0.556176973652172  0.0000
  Si     Si        0.083428389160445    0.353942879352950    0.034602748943358  0.0000
  Si     Si        0.138847999960323    0.312837789826574    0.034981376981675  0.0000
  Si     Si        0.139256867766712    0.243032390293122    0.034976288055082  0.0000
  Si     Si        0.083543267342252    0.202071274495610    0.034736561564920  0.0000
  Si     Si        0.083552536392171    0.132671352280582    0.034589577500941  0.0000
  Si     Si        0.583349384434278    0.077077872536725    0.534612576224638  0.0000
  Si     Si        0.637709896777593    0.034898957527804    0.535012631175337  0.0000
  Si     Si        0.145280821513030    0.194416363382573    0.312993409256709  0.0000
  Si     Si        0.076209721954789    0.243883301923114    0.194919837075090  0.0000
  Si     Si        0.145369493138837    0.194643700396424    0.243702414896205  0.0000
  Si     Si        0.313301082046299    0.194992910951567    0.075769967621407  0.0000
  Si     Si        0.193613158691490    0.465546714683491    0.144716997773406  0.0000
  Si     Si        0.305717925291320    0.424841611341769    0.034865888875099  0.0000
  Si     Si        0.854252808553395    0.424079716291448    0.249282706097129  0.0000
  O      O         0.110558668237720    0.332696186403554    0.045568294466560  0.0000
  O      O         0.130772798080098    0.277882432882315    0.040787218920700  0.0000
  O      O         0.111133507513925    0.222855014562543    0.045516569631317  0.0000
  O      O         0.093305390373462    0.167338187221297    0.039511146834919  0.0000
  O      O         0.093761605946055    0.611700692107218    0.038832034364725  0.0000
  O      O         0.610231480251520    0.055697118560662    0.545983631064642  0.0000
  O      O         0.110470372579017    0.186010652228357    0.319274584241951  0.0000
  O      O         0.278283959503940    0.204436480398253    0.150559920403315  0.0000
  O      O         0.184470753342164    0.238683753113351    0.110832702140061  0.0000
  O      O         0.070083864858199    0.278613211024321    0.203568555676997  0.0000
  O      O         0.054965985432716    0.833152703993912    0.676853546754690  0.0000
  O      O         0.054799872472018    0.832357227819956    0.767132821640810  0.0000
  O      O         0.276975333271863    0.434426760823936    0.166440543782501  0.0000
  O      O         0.333510048491251    0.445682189675320    0.955696045958167  0.0000
  O      O         0.434413007754826    0.278156937857318    0.944294424926206  0.0000
  O      O         0.166041562464833    0.278395044996457    0.344152444933977  0.0000
  O      O         0.611013751945193    0.241273272781602    0.848503349266587  0.0000
  O      O         0.570182962170561    0.111107339159512    0.741884482012601  0.0000
  O      O         0.040807694742591    0.390200826401317    0.685021582931165  0.0000
  O      O         0.779326075797523    0.844701799795313    0.556176711037391  0.0000
  Si     Si        0.965434461960641    0.646347481388134    0.916608797942065  0.0000
  Si     Si        0.965056068787962    0.687452591522341    0.861189193203596  0.0000
  Si     Si        0.965060966326102    0.757257997030528    0.860780608964364  0.0000
  Si     Si        0.965300900393657    0.798219108742637    0.916494206597839  0.0000
  Si     Si        0.965447674267440    0.867619023219608    0.916484712486655  0.0000
  Si     Si        0.465424610374826    0.923212490273640    0.416687772025663  0.0000
  Si     Si        0.465024836334352    0.965391416492363    0.362327265066321  0.0000
  Si     Si        0.687043843791772    0.805874228762971    0.854756638710262  0.0000
  Si     Si        0.805117645435594    0.756407298246531    0.923827528444879  0.0000
  Si     Si        0.756334832882505    0.805646663514220    0.854667754294535  0.0000
  Si     Si        0.924267475901327    0.805297420136061    0.686736370930379  0.0000
  Si     Si        0.855320227149521    0.534743670786462    0.806424017436044  0.0000
  Si     Si        0.965171586664991    0.575448765400451    0.694319576623833  0.0000
  Si     Si        0.750754811897605    0.576210864530213    0.145784653684996  0.0000
  O      O         0.954469022661295    0.667594014455236    0.889478350527080  0.0000
  O      O         0.959250126943632    0.722407903720591    0.869264533052002  0.0000
  O      O         0.954520789262775    0.777435208283817    0.888904127325262  0.0000
  O      O         0.960526220790957    0.832952147676820    0.906731941741161  0.0000
  O      O         0.961205301196221    0.388589602563212    0.906275740826280  0.0000
  O      O         0.454053687906483    0.944593040239279    0.389805457462504  0.0000
  O      O         0.680762765768564    0.814279818719070    0.889567134957884  0.0000
  O      O         0.849477430542747    0.795853973358890    0.721753225972017  0.0000
  O      O         0.889204494030101    0.761606750830438    0.815566569327399  0.0000
  O      O         0.796468797617542    0.721677437807229    0.929953472851549  0.0000
  O      O         0.323183795903761    0.167138120367677    0.945071646722308  0.0000
  O      O         0.232904500801086    0.167932963690405    0.945237221947781  0.0000
  O      O         0.833597130795224    0.565863725012428    0.723061644656960  0.0000
  O      O         0.044341317823729    0.554608664316744    0.666526885046008  0.0000
  O      O         0.055743229425529    0.722133186903574    0.565624323680519  0.0000
  O      O         0.655884930530436    0.721895699880357    0.833995530484793  0.0000
  O      O         0.151533936138276    0.759017159812299    0.389023744776681  0.0000
  O      O         0.258152862151660    0.889183322573468    0.429854385540338  0.0000
  O      O         0.315015739836310    0.610089843736578    0.959229644143340  0.0000
  O      O         0.443860376225422    0.155588692909721    0.220710944886415  0.0000
  Si     Si        0.353778104597996    0.965599361373352    0.916608960898661  0.0000
  Si     Si        0.312673017154743    0.965220730609771    0.861189349525909  0.0000
  Si     Si        0.242867616619597    0.965225817852160    0.860780478693154  0.0000
  Si     Si        0.201906507788194    0.965465549292626    0.916494083281532  0.0000
  Si     Si        0.132506584703720    0.965612535390751    0.916484819544226  0.0000
  Si     Si        0.076913106443689    0.465589523910318    0.416687955367960  0.0000
  Si     Si        0.034734189582079    0.465189478315920    0.362327448453794  0.0000
  Si     Si        0.194251590226232    0.687208705441539    0.854756528761945  0.0000
  Si     Si        0.243718533980500    0.805282279581955    0.923827625830240  0.0000
  Si     Si        0.194478930868025    0.756499700417224    0.854667857812484  0.0000
  Si     Si        0.194828141101230    0.924432140487402    0.686736259681782  0.0000
  Si     Si        0.465381951060360    0.855485110482456    0.806424172947763  0.0000
  Si     Si        0.424676830056075    0.965336213627877    0.694319409370340  0.0000
  Si     Si        0.423914953970355    0.750919403140244    0.145784538454877  0.0000
  O      O         0.332531408658392    0.954633814002573    0.889478685021645  0.0000
  O      O         0.277717659602549    0.959414887755989    0.869264546386681  0.0000
  O      O         0.222690243004898    0.954685537276506    0.888903841012805  0.0000
  O      O         0.167173419195328    0.960690965365129    0.906731965106047  0.0000
  O      O         0.611535917280882    0.961370079061579    0.906275742132924  0.0000
  O      O         0.055532356903145    0.454218468241488    0.389805856063043  0.0000
  O      O         0.185845877992161    0.680927531196043    0.889566977317105  0.0000
  O      O         0.204271720456029    0.849642178654577    0.721753372118228  0.0000
  O      O         0.238518983790421    0.889369404844076    0.815566584906005  0.0000
  O      O         0.278448442927067    0.796633559553754    0.929953483386425  0.0000
  O      O         0.832987969888605    0.323348568454537    0.945071336880815  0.0000
  O      O         0.832192451305832    0.233069292608291    0.945237477127062  0.0000
  O      O         0.434261983274642    0.833761582329182    0.723061985411349  0.0000
  O      O         0.445517393801576    0.044506056002446    0.666527268085170  0.0000
  O      O         0.277992173131491    0.055907671491714    0.565624334115127  0.0000
  O      O         0.278230274036956    0.656049677003113    0.833995784896244  0.0000
  O      O         0.241108521713863    0.151698709611957    0.389023601614437  0.0000
  O      O         0.110942572586355    0.258317632293974    0.429854388454169  0.0000
  O      O         0.390036065156974    0.315180546734912    0.959229620993148  0.0000
  O      O         0.844537030029524    0.444025400503098    0.220711270307891  0.0000
  Si     Si        0.034526490379643    0.353943002895440    0.916608789388111  0.0000
  Si     Si        0.034904878069630    0.312837887694213    0.861189189431766  0.0000
  Si     Si        0.034899981280485    0.243032483193575    0.860780608228384  0.0000
  Si     Si        0.034660044405257    0.202071367151171    0.916494202970974  0.0000
  Si     Si        0.034513273662131    0.132671453593043    0.916484705396248  0.0000
  Si     Si        0.534536344929035    0.077078019727927    0.416687746907864  0.0000
  Si     Si        0.534936108180015    0.034899104719738    0.362327231033410  0.0000
  Si     Si        0.312917101969244    0.194416247953967    0.854756632682018  0.0000
  Si     Si        0.194843300932934    0.243883183401238    0.923827523772877  0.0000
  Si     Si        0.243626112501074    0.194643812183430    0.854667748871510  0.0000
  Si     Si        0.075693470432257    0.194993054468406    0.686736371073653  0.0000
  Si     Si        0.144640719005777    0.465546813810398    0.806424019118412  0.0000
  Si     Si        0.034789361764329    0.424841714256772    0.694319576444080  0.0000
  Si     Si        0.249206131409504    0.424079619287178    0.145784651130768  0.0000
  O      O         0.045491929541291    0.332696470501030    0.889478341087406  0.0000
  O      O         0.040710822183246    0.277882576392944    0.869264532973657  0.0000
  O      O         0.045440155737696    0.222855271241864    0.888904126920623  0.0000
  O      O         0.039434725800280    0.167338329320261    0.906731933814775  0.0000
  O      O         0.038755649808257    0.611700880227223    0.906275748160220  0.0000
  O      O         0.545907266693400    0.055697493767380    0.389805410891975  0.0000
  O      O         0.319198181833401    0.186010667406868    0.889567130487112  0.0000
  O      O         0.150483515865019    0.204436497794852    0.721753226121797  0.0000
  O      O         0.110756452471031    0.238683725579063    0.815566565949694  0.0000
  O      O         0.203492150872425    0.278613043365170    0.929953469887973  0.0000
  O      O         0.676777149504478    0.833152366567971    0.945071650733257  0.0000
  O      O         0.767056441448203    0.832357517133584    0.945237227389482  0.0000
  O      O         0.166363817096201    0.434426753718718    0.723061648450757  0.0000
  O      O         0.955619629856330    0.445681816490849    0.666526887267783  0.0000
  O      O         0.944217712278007    0.278157292455824    0.565624325651718  0.0000
  O      O         0.344076012053864    0.278394777052668    0.833995517662860  0.0000
  O      O         0.848427003129911    0.241273314735265    0.389023741824688  0.0000
  O      O         0.741808087785234    0.111107168106626    0.429854372955827  0.0000
  O      O         0.684945216561349    0.390200650794635    0.959229624576974  0.0000
  O      O         0.556100578096654    0.844701833808178    0.220710933132696  0.0000
  Si     Si        0.646182837994628    0.034691107792142    0.916608950730158  0.0000
  Si     Si        0.687287928526894    0.035069734965613    0.861189343889584  0.0000
  Si     Si        0.757093328167161    0.035064648400891    0.860780474841378  0.0000
  Si     Si        0.798054437873463    0.034824928597193    0.916494080740668  0.0000
  Si     Si        0.867454361852322    0.034677937735311    0.916484817460019  0.0000
  Si     Si        0.923047835879704    0.534700949224574    0.416687954005387  0.0000
  Si     Si        0.965226753130255    0.535100995392184    0.362327448715909  0.0000
  Si     Si        0.805709354612020    0.313081773957572    0.854756514017970  0.0000
  Si     Si        0.756242408135558    0.195008211243191    0.923827622006786  0.0000
  Si     Si        0.805482014871802    0.243790781504342    0.854667850856540  0.0000
  Si     Si        0.805132807295209    0.075858334491737    0.686736257319842  0.0000
  Si     Si        0.534578996351554    0.144805352954399    0.806424179374275  0.0000
  Si     Si        0.575284116349318    0.034954258975429    0.694319407287378  0.0000
  Si     Si        0.576045921470569    0.249371285810550    0.145784344610179  0.0000
  O      O         0.667429533549544    0.045656655666923    0.889478674883647  0.0000
  O      O         0.722243285412551    0.040875581282721    0.869264542150599  0.0000
  O      O         0.777270703918609    0.045604931884533    0.888903834083388  0.0000
  O      O         0.832787527221822    0.039599510383884    0.906731964589960  0.0000
  O      O         0.388425020783053    0.038920386704373    0.906275724955470  0.0000
  O      O         0.944428585289645    0.546072005964601    0.389805855474143  0.0000
  O      O         0.814115071210607    0.319362946908466    0.889566960909658  0.0000
  O      O         0.795689230502487    0.150648293684756    0.721753375019875  0.0000
  O      O         0.761441968718328    0.110921061397757    0.815566588388920  0.0000
  O      O         0.721512496854742    0.203656928449036    0.929953473782900  0.0000
  O      O         0.166973001874200    0.676941911763236    0.945071362722069  0.0000
  O      O         0.167768485447768    0.767221191530023    0.945237481082579  0.0000
  O      O         0.565698966156380    0.166528899972563    0.723061997674171  0.0000
  O      O         0.554443555955359    0.955784414512651    0.666527268406737  0.0000
  O      O         0.721968776285729    0.944382810169924    0.565624336397764  0.0000
  O      O         0.721730673179041    0.344240815416893    0.833995787932986  0.0000
  O      O         0.758852416060370    0.848591783414244    0.389023596685931  0.0000
  O      O         0.889018376266859    0.741972848606600    0.429854388013224  0.0000
  O      O         0.609924879795060    0.685109951810740    0.959229660004335  0.0000
  O      O         0.155423913287556    0.556265081056051    0.220711272949521  0.0000
  Si     Si        0.965434461405051    0.353943001502865    0.083504960114437  0.0000
  Si     Si        0.965056073568734    0.312837892030404    0.138924566004593  0.0000
  Si     Si        0.965060963934680    0.243032486653115    0.139333141131051  0.0000
  Si     Si        0.965300901073649    0.202071371074954    0.083619544731175  0.0000
  Si     Si        0.965447679539593    0.132671457818083    0.083629043732193  0.0000
  Si     Si        0.465424608778462    0.077077994197411    0.583425976807558  0.0000
  Si     Si        0.465024836143130    0.034899075301162    0.637786486259754  0.0000
  Si     Si        0.687043791505449    0.194416272387055    0.145357085402702  0.0000
  Si     Si        0.805117632800093    0.243883190002017    0.076286220582542  0.0000
  Si     Si        0.756334775433025    0.194643864168932    0.145446001226185  0.0000
  Si     Si        0.924267468344443    0.194993063409415    0.313377370602317  0.0000
  Si     Si        0.855320215792176    0.465546810357345    0.193689722382152  0.0000
  Si     Si        0.965171585256072    0.424841716355465    0.305794168429450  0.0000
  Si     Si        0.750754807750500    0.424079628881264    0.854329090658319  0.0000
  O      O         0.954469024980797    0.332696475111792    0.110635413940027  0.0000
  O      O         0.959250128085511    0.277882581464880    0.130849220239244  0.0000
  O      O         0.954520791857199    0.222855278230870    0.111209619186120  0.0000
  O      O         0.960526222562000    0.167338333126952    0.093381815220681  0.0000
  O      O         0.961205297444260    0.611700876044891    0.093838009301387  0.0000
  O      O         0.454053683270276    0.055697447071700    0.610308292165951  0.0000
  O      O         0.680762758992908    0.186010668473760    0.110546584470394  0.0000
  O      O         0.849477422216308    0.204436509372781    0.278360518452378  0.0000
  O      O         0.889204477426854    0.238683731138912    0.184547162476151  0.0000
  O      O         0.796468785466986    0.278613049914844    0.070160268985340  0.0000
  O      O         0.323183795898616    0.833152368795704    0.055042106641159  0.0000
  O      O         0.232904505791339    0.832357511559887    0.054876531169733  0.0000
  O      O         0.833597117510992    0.434426755700918    0.277052097445103  0.0000
  O      O         0.044341313433029    0.445681809456620    0.333586868416969  0.0000
  O      O         0.055743232726621    0.278157293531196    0.434489422592010  0.0000
  O      O         0.655884846862521    0.278394764640858    0.166118156731950  0.0000
  O      O         0.151533937179804    0.241273313136630    0.611090005835251  0.0000
  O      O         0.258152855534497    0.111107159881829    0.570259364876707  0.0000
  O      O         0.315015740550183    0.390200659817084    0.040884098504663  0.0000
  O      O         0.443860373477882    0.844701818693121    0.779402800310489  0.0000
  Si     Si        0.646182831397489    0.965599373651233    0.083504789723028  0.0000
  Si     Si        0.687287915069452    0.965220751120421    0.138924403711569  0.0000
  Si     Si        0.757093316057473    0.965225843500140    0.139333277626503  0.0000
  Si     Si        0.798054432481432    0.965465557754404    0.083619674763008  0.0000
  Si     Si        0.867454354210334    0.965612539655520    0.083628940766398  0.0000
  Si     Si        0.923047837339721    0.465589524359184    0.583425797254534  0.0000
  Si     Si        0.965226753315677    0.465189482359921    0.637786304960102  0.0000
  Si     Si        0.805709344324469    0.687208708194935    0.145357228286233  0.0000
  Si     Si        0.756242409759980    0.805282278344668    0.076286126890200  0.0000
  Si     Si        0.805482011805692    0.756499703190714    0.145445897548091  0.0000
  Si     Si        0.805132802283869    0.924432144735175    0.313377488091085  0.0000
  Si     Si        0.534579002123635    0.855485130489298    0.193689561511940  0.0000
  Si     Si        0.575284109766731    0.965336222018666    0.305794336693925  0.0000
  Si     Si        0.576045999757750    0.750919408544569    0.854329215348499  0.0000
  O      O         0.667429522063377    0.954633829731638    0.110635071354172  0.0000
  O      O         0.722243273678636    0.959414913970785    0.130849206264399  0.0000
  O      O         0.777270692324236    0.954685559641664    0.111209919005801  0.0000
  O      O         0.832787519812459    0.960690969204563    0.093381796777548  0.0000
  O      O         0.388425031948855    0.961370087942436    0.093838015552818  0.0000
  O      O         0.944428585372667    0.454218470313670    0.610307898533475  0.0000
  O      O         0.814115055045768    0.680927529766723    0.110546780053596  0.0000
  O      O         0.795689225046949    0.849642186158135    0.278360373001723  0.0000
  O      O         0.761441961817984    0.889369419597066    0.184547155283686  0.0000
  O      O         0.721512501022227    0.796633557717254    0.070160269699721  0.0000
  O      O         0.166973005006222    0.323348570382756    0.055042393602367  0.0000
  O      O         0.167768484810332    0.233069295440028    0.054876268573809  0.0000
  O      O         0.565698961077380    0.833761571352050    0.277051746843738  0.0000
  O      O         0.554443524215713    0.044506077011631    0.333586427074344  0.0000
  O      O         0.721968769410778    0.055907680940539    0.434489398552639  0.0000
  O      O         0.721730657132972    0.656049665827622    0.166117965591532  0.0000
  O      O         0.758852425623481    0.151698706493806    0.611090149106627  0.0000
  O      O         0.889018373066769    0.258317630537022    0.570259362783646  0.0000
  O      O         0.609924874372477    0.315180538321673    0.040884047991837  0.0000
  O      O         0.155423912311013    0.444025400329040    0.779402477020852  0.0000
  Si     Si        0.034526481642251    0.646347478984076    0.083504962042816  0.0000
  Si     Si        0.034904873891861    0.687452589669340    0.138924567369699  0.0000
  Si     Si        0.034899977737003    0.757257994794053    0.139333150387054  0.0000
  Si     Si        0.034660044228869    0.798219109528387    0.083619554825040  0.0000
  Si     Si        0.034513268349912    0.867619023697504    0.083629051069256  0.0000
  Si     Si        0.534536337279149    0.923212481431090    0.583425972094696  0.0000
  Si     Si        0.534936111910284    0.965391395443531    0.637786487425082  0.0000
  Si     Si        0.312917106797674    0.805874232212243    0.145357117740211  0.0000
  Si     Si        0.194843304927124    0.756407294013881    0.076286229852562  0.0000
  Si     Si        0.243626118771662    0.805646662117289    0.145446004736061  0.0000
  Si     Si        0.075693471366917    0.805297423212246    0.313377382447264  0.0000
  Si     Si        0.144640723168232    0.534743667483209    0.193689729497099  0.0000
  Si     Si        0.034789357988458    0.575448761458963    0.305794173599635  0.0000
  Si     Si        0.249206141228702    0.576210862518161    0.854329097763086  0.0000
  O      O         0.045491919782365    0.667594009672934    0.110635411932058  0.0000
  O      O         0.040710815855003    0.722407901418271    0.130849224833912  0.0000
  O      O         0.045440154019746    0.777435207044253    0.111209632726089  0.0000
  O      O         0.039434724055617    0.832952148209125    0.093381821190812  0.0000
  O      O         0.038755644701068    0.388589603222130    0.093838004132112  0.0000
  O      O         0.545907261460425    0.944593024383897    0.610308291482271  0.0000
  O      O         0.319198181013707    0.814279819763506    0.110546620847095  0.0000
  O      O         0.150483514979968    0.795853980058401    0.278360526877242  0.0000
  O      O         0.110756453342795    0.761606750327534    0.184547185258956  0.0000
  O      O         0.203492151019322    0.721677433456238    0.070160281577905  0.0000
  O      O         0.676777141602364    0.167138109040660    0.055042080805480  0.0000
  O      O         0.767056442003458    0.167932961381526    0.054876546567247  0.0000
  O      O         0.166363824145611    0.565863723113438    0.277052101012153  0.0000
  O      O         0.955619629934510    0.554608663625180    0.333586868239508  0.0000
  O      O         0.944217715021854    0.722133187029366    0.434489425416720  0.0000
  O      O         0.344076016460300    0.721895707826965    0.166118226489681  0.0000
  O      O         0.848427008184087    0.759017164067074    0.611090002606189  0.0000
  O      O         0.741808088994302    0.889183318404736    0.570259365368236  0.0000
  O      O         0.684945193841085    0.610089831311375    0.040884111863075  0.0000
  O      O         0.556100579086670    0.155588649122662    0.779402812498468  0.0000
  Si     Si        0.353778102715362    0.034691114993912    0.083504778215274  0.0000
  Si     Si        0.312673019277357    0.035069748907825    0.138924393006104  0.0000
  Si     Si        0.242867619696080    0.035064656901804    0.139333275203152  0.0000
  Si     Si        0.201906506856716    0.034824925402569    0.083619673241296  0.0000
  Si     Si        0.132506584348799    0.034677940745992    0.083628936477421  0.0000
  Si     Si        0.076913108678534    0.534700952655429    0.583425796429512  0.0000
  Si     Si        0.034734192886608    0.535100997444923    0.637786303824710  0.0000
  Si     Si        0.194251601503593    0.313081773993518    0.145357224384949  0.0000
  Si     Si        0.243718524042986    0.195008194486505    0.076286122204326  0.0000
  Si     Si        0.194478927569495    0.243790779397161    0.145445891330656  0.0000
  Si     Si        0.194828139008896    0.075858339975301    0.313377491083445  0.0000
  Si     Si        0.465381910470767    0.144805399774595    0.193689536542998  0.0000
  Si     Si        0.424676830473426    0.034954270960980    0.305794332750824  0.0000
  Si     Si        0.423914944579492    0.249371070869834    0.854329200196887  0.0000
  O      O         0.332531406755962    0.045656661686264    0.110635053832902  0.0000
  O      O         0.277717660447906    0.040875585947864    0.130849197691359  0.0000
  O      O         0.222690239692304    0.045604937322709    0.111209917243253  0.0000
  O      O         0.167173418594419    0.039599511128922    0.093381791345743  0.0000
  O      O         0.611535902574430    0.038920406721417    0.093837988058294  0.0000
  O      O         0.055532360299637    0.546072008002694    0.610307896650719  0.0000
  O      O         0.185845888712714    0.319362950204381    0.110546776072576  0.0000
  O      O         0.204271719464743    0.150648299223386    0.278360375555413  0.0000
  O      O         0.238518990496086    0.110921072657413    0.184547167709159  0.0000
  O      O         0.278448432991520    0.203656910729538    0.070160267097637  0.0000
  O      O         0.832987938079278    0.676941909097458    0.055042396996993  0.0000
  O      O         0.832192459749125    0.767221187408104    0.054876276290623  0.0000
  O      O         0.434261988929069    0.166528898638265    0.277051765910188  0.0000
  O      O         0.445517399552820    0.955784434125648    0.333586479847609  0.0000
  O      O         0.277992171409358    0.944382817586671    0.434489411957351  0.0000
  O      O         0.278230292748512    0.344240813956161    0.166117955339741  0.0000
  O      O         0.241108522503395    0.848591770123543    0.611090144221455  0.0000
  O      O         0.110942569161498    0.741972846899064    0.570259360767034  0.0000
  O      O         0.390036060271275    0.685109953584802    0.040884090648696  0.0000
  O      O         0.844537035030177    0.556265082105601    0.779402473448636  0.0000
  Si     Si        0.916532391411401    0.965599227687266    0.646259109446299  0.0000
  Si     Si        0.861112789390937    0.965220832912697    0.687364224460858  0.0000
  Si     Si        0.860704207713670    0.965225728401305    0.757169628024944  0.0000
  Si     Si        0.916417799410283    0.965465662513177    0.798130748259045  0.0000
  Si     Si        0.916408301074131    0.965612438565349    0.867530661056403  0.0000
  Si     Si        0.416611345477063    0.465589384459707    0.923124098796995  0.0000
  Si     Si        0.362250840212307    0.465189619326440    0.965303020771954  0.0000
  Si     Si        0.854680234853091    0.687208608330114    0.805785865481088  0.0000
  Si     Si        0.923751127096184    0.805282403856949    0.756318926369873  0.0000
  Si     Si        0.854591351720020    0.756499597472794    0.805558299292202  0.0000
  Si     Si        0.686659972228240    0.924432238151640    0.805209054832384  0.0000
  Si     Si        0.806347620178587    0.855484989213267    0.534655298219785  0.0000
  Si     Si        0.694243177614250    0.965336355071000    0.575360395645204  0.0000
  Si     Si        0.145708246593974    0.750919568073510    0.576122490959659  0.0000
  O      O         0.889401943622223    0.954633787764270    0.667505641930610  0.0000
  O      O         0.869188134625149    0.959414888802011    0.722319535279998  0.0000
  O      O         0.888827723942855    0.954685552194672    0.777346842587487  0.0000
  O      O         0.906655529186732    0.960690983159941    0.832863785922248  0.0000
  O      O         0.906199341115719    0.961370070362122    0.388501233682971  0.0000
  O      O         0.389729021657409    0.454218461376795    0.944504636100820  0.0000
  O      O         0.889490731334890    0.680927531701439    0.814191454329054  0.0000
  O      O         0.721676825960883    0.849642190451460    0.795765610049794  0.0000
  O      O         0.815490165353389    0.889369256435511    0.761518385178814  0.0000
  O      O         0.929877073865568    0.796633556062413    0.721589065901999  0.0000
  O      O         0.944995253904062    0.323348561628264    0.167049753001011  0.0000
  O      O         0.945160814733071    0.233069268798359    0.167844596270099  0.0000
  O      O         0.722985247243629    0.833761891417635    0.565775356589036  0.0000
  O      O         0.666450471907413    0.044506084804923    0.554520306971971  0.0000
  O      O         0.565547925136090    0.055908003600929    0.722044810529053  0.0000
  O      O         0.833919136903572    0.656049698491382    0.721807333146849  0.0000
  O      O         0.388947342439605    0.151698698712779    0.758928795217178  0.0000
  O      O         0.429777976569683    0.258317612576278    0.889094940210013  0.0000
  O      O         0.959153238297562    0.315180515170672    0.610001467451699  0.0000
  O      O         0.220634524568228    0.444025127634292    0.155500285372533  0.0000
  Si     Si        0.916532379419204    0.034691257358221    0.353854631118949  0.0000
  Si     Si        0.861112770936192    0.035069649404620    0.312749521522228  0.0000
  Si     Si        0.860704192725133    0.035064756959083    0.242944115695171  0.0000
  Si     Si        0.916417794545381    0.034824816642184    0.201983007114054  0.0000
  Si     Si        0.916408299411095    0.034678039939707    0.132583093184439  0.0000
  Si     Si        0.416611369603817    0.534701108630936    0.076989627482658  0.0000
  Si     Si        0.362250861426114    0.535100888366022    0.034810706572183  0.0000
  Si     Si        0.854680238589704    0.313081878289739    0.194327874875496  0.0000
  Si     Si        0.923751111518059    0.195008069513726    0.243794814684692  0.0000
  Si     Si        0.854591337018756    0.243790888440058    0.194555442521991  0.0000
  Si     Si        0.686659954061582    0.075858261069778    0.194904684310506  0.0000
  Si     Si        0.806347616196107    0.144805492777681    0.465458444333626  0.0000
  Si     Si        0.694243170931710    0.034954134536610    0.424753342662082  0.0000
  Si     Si        0.145708249151537    0.249370908415567    0.423991255758434  0.0000
  O      O         0.889401925274365    0.045656695659868    0.332608104576770  0.0000
  O      O         0.869188114448839    0.040875592739422    0.277794210240004  0.0000
  O      O         0.888827716225518    0.045604928469883    0.222766908368599  0.0000
  O      O         0.906655528582480    0.039599494585464    0.167249968326207  0.0000
  O      O         0.906199341216617    0.038920412436959    0.611612507106434  0.0000
  O      O         0.389729054904446    0.546072037334165    0.055609081337591  0.0000
  O      O         0.889490736855365    0.319362956184705    0.185922298287150  0.0000
  O      O         0.721676787826544    0.150648300969755    0.204348142482219  0.0000
  O      O         0.815490148280146    0.110921238317414    0.238595350534119  0.0000
  O      O         0.929877061456675    0.203656921642974    0.278524673572528  0.0000
  O      O         0.944995242588226    0.676941917332834    0.833064012439279  0.0000
  O      O         0.945160826364382    0.767221211160499    0.832269146024767  0.0000
  O      O         0.722985242258408    0.166528594510737    0.434338382458147  0.0000
  O      O         0.666450480183205    0.955784406019516    0.445593440013908  0.0000
  O      O         0.565547916645195    0.944382465223709    0.278068943656131  0.0000
  O      O         0.833919117869800    0.344240781708213    0.278306403276818  0.0000
  O      O         0.388947350219355    0.848591779877773    0.241184952476041  0.0000
  O      O         0.429777985486767    0.741972853627692    0.111018799659321  0.0000
  O      O         0.959153235884981    0.685109963899770    0.390112282985213  0.0000
  O      O         0.220634543458116    0.556265342612110    0.844613457352240  0.0000
  Si     Si        0.965434594171648    0.916697329141871    0.353854509351463  0.0000
  Si     Si        0.965055967611034    0.861277714928539    0.312749425306724  0.0000
  Si     Si        0.965061054612604    0.860868844718421    0.242944024661816  0.0000
  Si     Si        0.965300783670039    0.916582450769367    0.201982915355124  0.0000
  Si     Si        0.965447768911752    0.916573182673449    0.132582992510658  0.0000
  Si     Si        0.465424748456972    0.416776320227833    0.076989496421701  0.0000
  Si     Si        0.465024708016509    0.362415824650762    0.034810560381883  0.0000
  Si     Si        0.687043934703404    0.854844896323287    0.194327994815014  0.0000
  Si     Si        0.805117506919764    0.923915994031417    0.243794934441069  0.0000
  Si     Si        0.756334931230017    0.854756230430284    0.194555330657225  0.0000
  Si     Si        0.924267370858636    0.686824625090526    0.194904546681330  0.0000
  Si     Si        0.855320344252665    0.806512541157563    0.465458348286289  0.0000
  Si     Si        0.965171452197145    0.694407778007541    0.424753233828783  0.0000
  Si     Si        0.750754637752490    0.145872907395904    0.423991345530208  0.0000
  O      O         0.954469048762995    0.889567049036696    0.332607817560257  0.0000
  O      O         0.959250126173827    0.869352912040143    0.277794067732913  0.0000
  O      O         0.954520775438548    0.888992208367352    0.222766652268620  0.0000
  O      O         0.960526199213219    0.906820330578395    0.167249827519311  0.0000
  O      O         0.961205314144470    0.906364100497081    0.611612322212435  0.0000
  O      O         0.454053700059933    0.389894235792708    0.055608724032784  0.0000
  O      O         0.680762756021892    0.889655344049077    0.185922278410024  0.0000
  O      O         0.849477409697509    0.721841739966459    0.204348124213132  0.0000
  O      O         0.889204637317296    0.815654955033502    0.238595385991060  0.0000
  O      O         0.796468788482987    0.930041852209639    0.278524842905552  0.0000
  O      O         0.323183802428646    0.945159715938081    0.833064345081732  0.0000
  O      O         0.232904521105407    0.945325835210431    0.832268863031141  0.0000
  O      O         0.833596824678585    0.723150347757841    0.434338385584201  0.0000
  O      O         0.044341295027122    0.666615628312963    0.445593789695725  0.0000
  O      O         0.055742905676470    0.565712700520808    0.278068577591781  0.0000
  O      O         0.655884904771972    0.834084151605221    0.278306680048109  0.0000
  O      O         0.151533939147201    0.389111965561772    0.241184927667276  0.0000
  O      O         0.258152863178991    0.429942757188868    0.111018977425118  0.0000
  O      O         0.315015761030291    0.959318026013111    0.390112460238739  0.0000
  O      O         0.443860629067706    0.220799638255426    0.844613410717867  0.0000
  Si     Si        0.083428551721804    0.965599231398887    0.353854633627555  0.0000
  Si     Si        0.138848159281105    0.965220838842504    0.312749526331939  0.0000
  Si     Si        0.139256742997318    0.965225734459859    0.242944121268797  0.0000
  Si     Si        0.083543145100300    0.965465669196650    0.201983009443970  0.0000
  Si     Si        0.083552641883777    0.965612442109682    0.132583095568822  0.0000
  Si     Si        0.583349569241317    0.465589382049889    0.076989620598865  0.0000
  Si     Si        0.637710077071485    0.465189602682278    0.034810696645682  0.0000
  Si     Si        0.145280710116882    0.687208609619740    0.194327891546211  0.0000
  Si     Si        0.076209821353512    0.805282410736965    0.243794825615162  0.0000
  Si     Si        0.145369595536825    0.756499597680570    0.194555457004820  0.0000
  Si     Si        0.313300978802729    0.924432246070879    0.194904699346833  0.0000
  Si     Si        0.193613326546848    0.855484989752553    0.465458443189600  0.0000
  Si     Si        0.305717770367136    0.965336360110534    0.424753347949705  0.0000
  Si     Si        0.854252699060562    0.750919568004015    0.423991255062954  0.0000
  O      O         0.110559002018061    0.954633792705358    0.332608103648824  0.0000
  O      O         0.130772819063067    0.959414896711252    0.277794214584901  0.0000
  O      O         0.111133223218038    0.954685558660625    0.222766911393182  0.0000
  O      O         0.093305411425648    0.960690988412582    0.167249971236431  0.0000
  O      O         0.093761603931349    0.961370062816864    0.611612506240095  0.0000
  O      O         0.610231877504967    0.454218456504502    0.055609064716632  0.0000
  O      O         0.110470213592384    0.680927532785216    0.185922303152304  0.0000
  O      O         0.278284125867655    0.849642200977122    0.204348144266347  0.0000
  O      O         0.184470780991834    0.889369259334320    0.238595366609580  0.0000
  O      O         0.070083875162971    0.796633564750340    0.278524686221273  0.0000
  O      O         0.054965698848368    0.323348557941864    0.833064003581873  0.0000
  O      O         0.054800121508213    0.233069267462396    0.832269146289536  0.0000
  O      O         0.276975704092670    0.833761895234141    0.434338390758730  0.0000
  O      O         0.333510479787299    0.044506086924038    0.445593435500638  0.0000
  O      O         0.434413027468619    0.055908019500025    0.278068935097455  0.0000
  O      O         0.166041814876870    0.656049694463949    0.278306419246232  0.0000
  O      O         0.611013569389264    0.151698722613826    0.241184952422103  0.0000
  O      O         0.570183044641405    0.258317929233616    0.111018603140450  0.0000
  O      O         0.040807703893551    0.315180516985669    0.390112281803551  0.0000
  O      O         0.779326401834965    0.444025153191977    0.844613447955617  0.0000
  Si     Si        0.034526341353774    0.083593155894737    0.353854508181469  0.0000
  Si     Si        0.034904971103392    0.139012768770009    0.312749421251121  0.0000
  Si     Si        0.034899884119766    0.139421640144257    0.242944021125630  0.0000
  Si     Si        0.034660156927843    0.083708033623080    0.201982911153880  0.0000
  Si     Si        0.034513173237237    0.083717299354922    0.132582988850789  0.0000
  Si     Si        0.534536182779928    0.583514165398684    0.076989501841717  0.0000
  Si     Si        0.534936228169191    0.637874668980287    0.034810585027345  0.0000
  Si     Si        0.312917011469918    0.145445606202579    0.194327992368744  0.0000
  Si     Si        0.194843439515945    0.076374490989954    0.243794937142658  0.0000
  Si     Si        0.243626015330991    0.145534263652273    0.194555335698144  0.0000
  Si     Si        0.075693575139324    0.313465855922441    0.194904540419440  0.0000
  Si     Si        0.144640598828926    0.193777936073179    0.465458351739789  0.0000
  Si     Si        0.034789491081178    0.305882699437147    0.424753232472471  0.0000
  Si     Si        0.249206310859259    0.854417584300401    0.423991351578611  0.0000
  O      O         0.045491886767692    0.110723434667989    0.332607815092316  0.0000
  O      O         0.040710812704849    0.130937570664172    0.277794063837080  0.0000
  O      O         0.045440162740792    0.111298277092915    0.222766647841355  0.0000
  O      O         0.039434741452334    0.093470153651735    0.167249823429540  0.0000
  O      O         0.038755628722558    0.093926374025177    0.611612320654362  0.0000
  O      O         0.545907240950085    0.610396259991891    0.055608748342731  0.0000
  O      O         0.319198179552629    0.110635157450736    0.185922272078081  0.0000
  O      O         0.150483533926780    0.278448739725996    0.204348118531255  0.0000
  O      O         0.110756303928841    0.184635526726396    0.238595383947022  0.0000
  O      O         0.203492155545714    0.070248632638941    0.278524846287373  0.0000
  O      O         0.676777145587119    0.055130745299403    0.833064335527212  0.0000
  O      O         0.767056424611318    0.054964626078394    0.832268856290582  0.0000
  O      O         0.166364130742433    0.277140124260829    0.434338384792279  0.0000
  O      O         0.955619650442486    0.333674845031751    0.445593793355156  0.0000
  O      O         0.944218039059189    0.434577775421800    0.278068570358942  0.0000
  O      O         0.344076043899767    0.166206324182034    0.278306682249856  0.0000
  O      O         0.848427003545534    0.611178510305635    0.241184924975060  0.0000
  O      O         0.741808082034640    0.570347725777018    0.111018979845801  0.0000
  O      O         0.684945163687381    0.040972466883910    0.390112458025544  0.0000
  O      O         0.556100316668836    0.779490844030658    0.844613433535865  0.0000
  Si     Si        0.083428553841281    0.034691246768294    0.646259109458977  0.0000
  Si     Si        0.138848156770319    0.035069639671752    0.687364223829417  0.0000
  Si     Si        0.139256740209122    0.035064741661095    0.757169627607156  0.0000
  Si     Si        0.083543147592879    0.034824808191095    0.798130746765722  0.0000
  Si     Si        0.083552644100759    0.034678033520170    0.867530659426166  0.0000
  Si     Si        0.583349595852659    0.534701133878164    0.923124098627566  0.0000
  Si     Si        0.637710099656289    0.535100878616197    0.965303016890381  0.0000
  Si     Si        0.145280709161997    0.313081866915377    0.805785862326933  0.0000
  Si     Si        0.076209819668645    0.195008067600758    0.756318927132628  0.0000
  Si     Si        0.145369594493379    0.243790879170569    0.805558295430701  0.0000
  Si     Si        0.313300974342540    0.075858232142432    0.805209052325738  0.0000
  Si     Si        0.193613323499192    0.144805486972162    0.534655303192572  0.0000
  Si     Si        0.305717770248275    0.034954124913108    0.575360394551837  0.0000
  Si     Si        0.854252696243181    0.249370907404723    0.576122494348457  0.0000
  O      O         0.110559001609942    0.045656685342893    0.667505642845332  0.0000
  O      O         0.130772813608944    0.040875583407969    0.722319535127114  0.0000
  O      O         0.111133223957966    0.045604917883851    0.777346842076521  0.0000
  O      O         0.093305416461364    0.039599488874080    0.832863784549265  0.0000
  O      O         0.093761599828431    0.038920415765449    0.388501235583348  0.0000
  O      O         0.610231922131228    0.546072055344025    0.944504635830127  0.0000
  O      O         0.110470212433084    0.319362942545003    0.814191450597479  0.0000
  O      O         0.278284120408952    0.150648275900592    0.795765611108297  0.0000
  O      O         0.184470776553764    0.110921215008582    0.761518383311890  0.0000
  O      O         0.070083873194945    0.203656915345162    0.721589066750655  0.0000
  O      O         0.054965700250762    0.676941918730975    0.167049749210677  0.0000
  O      O         0.054800119446680    0.767221208980712    0.167844611868768  0.0000
  O      O         0.276975696638007    0.166528587390290    0.565775359880862  0.0000
  O      O         0.333510463280960    0.955784396312783    0.554520296438984  0.0000
  O      O         0.434413022500376    0.944382472982369    0.722044814867944  0.0000
  O      O         0.166041812068204    0.344240783163109    0.721807335193533  0.0000
  O      O         0.611013604466058    0.848591773582635    0.758928793472970  0.0000
  O      O         0.570182965330784    0.741972858552822    0.889094953621964  0.0000
  O      O         0.040807708430234    0.685109960855705    0.610001464337540  0.0000
  O      O         0.779326416853420    0.556265353009145    0.155500288213800  0.0000
  Si     Si        0.965434597361785    0.083593154552072    0.646259234043620  0.0000
  Si     Si        0.965055971033142    0.139012762050381    0.687364326299494  0.0000
  Si     Si        0.965061057642589    0.139421629536194    0.757169725252556  0.0000
  Si     Si        0.965300788475514    0.083708028865175    0.798130840642988  0.0000
  Si     Si        0.965447772686478    0.083717296348963    0.867530762118326  0.0000
  Si     Si        0.465424765411431    0.583514158294623    0.923124233510396  0.0000
  Si     Si        0.465024707550970    0.637874664486009    0.965303155594162  0.0000
  Si     Si        0.687043944564421    0.145445579391609    0.805785747696019  0.0000
  Si     Si        0.805117514802839    0.076374484645153    0.756318810630760  0.0000
  Si     Si        0.756334939316058    0.145534251028875    0.805558415817246  0.0000
  Si     Si        0.924267381301065    0.313465851210968    0.805209206235235  0.0000
  Si     Si        0.855320345592474    0.193777937042729    0.534655395887778  0.0000
  Si     Si        0.965171452501772    0.305882699076225    0.575360516922379  0.0000
  Si     Si        0.750754640760879    0.854417579910771    0.576122395995188  0.0000
  O      O         0.954469051139464    0.110723432368304    0.667505928204388  0.0000
  O      O         0.959250125003921    0.130937561310617    0.722319682677053  0.0000
  O      O         0.954520777659809    0.111298268136167    0.777347100611238  0.0000
  O      O         0.960526203755499    0.093470151927263    0.832863927777680  0.0000
  O      O         0.961205312677460    0.093926376856084    0.388501422698659  0.0000
  O      O         0.454053707571954    0.610396251737216    0.944504989028277  0.0000
  O      O         0.680762766853205    0.110635130997168    0.814191457985604  0.0000
  O      O         0.849477421433284    0.278448735634319    0.795765620186243  0.0000
  O      O         0.889204645931695    0.184635523989990    0.761518364447904  0.0000
  O      O         0.796468793159710    0.070248626607618    0.721588902566567  0.0000
  O      O         0.323183804318842    0.055130775677215    0.167049388526451  0.0000
  O      O         0.232904531830731    0.054964639502732    0.167844893870504  0.0000
  O      O         0.833596815833802    0.277140123842390    0.565775364580641  0.0000
  O      O         0.044341294150777    0.333674846744554    0.554519959640845  0.0000
  O      O         0.055742906412099    0.434577776245610    0.722045174165509  0.0000
  O      O         0.655884905500685    0.166206325738731    0.721807067756876  0.0000
  O      O         0.151533939960708    0.611178514442734    0.758928823179034  0.0000
  O      O         0.258152865350246    0.570347729470067    0.889094773751775  0.0000
  O      O         0.315015763839368    0.040972456323622    0.610001282611279  0.0000
  O      O         0.443860640915197    0.779490836612398    0.155500320786178  0.0000
  Si     Si        0.034526348145391    0.916697319619527    0.646259234362868  0.0000
  Si     Si        0.034904974800226    0.861277712916363    0.687364327850706  0.0000
  Si     Si        0.034899889846936    0.860868843550191    0.757169726467510  0.0000
  Si     Si        0.034660158318064    0.916582442325062    0.798130844392044  0.0000
  Si     Si        0.034513174074028    0.916573176158704    0.867530765368148  0.0000
  Si     Si        0.534536160948163    0.416776383919741    0.923124223753858  0.0000
  Si     Si        0.534936238706809    0.362415865497489    0.965303117766116  0.0000
  Si     Si        0.312917007726353    0.854844887271604    0.805785749656447  0.0000
  Si     Si        0.194843433621882    0.923915986266773    0.756318812811770  0.0000
  Si     Si        0.243626013452322    0.854756215642027    0.805558412485825  0.0000
  Si     Si        0.075693567714896    0.686824626220633    0.805209208426494  0.0000
  Si     Si        0.144640599485643    0.806512540162955    0.534655394989435  0.0000
  Si     Si        0.034789491869133    0.694407778115892    0.575360514380761  0.0000
  Si     Si        0.249206303928191    0.145872897686461    0.576122398780269  0.0000
  O      O         0.045491894370457    0.889567042055768    0.667505928815016  0.0000
  O      O         0.040710821061691    0.869352914317340    0.722319684184245  0.0000
  O      O         0.045440169191764    0.888992203916489    0.777347103544429  0.0000
  O      O         0.039434743041570    0.906820318500274    0.832863931440396  0.0000
  O      O         0.038755626036177    0.906364108749320    0.388501424156555  0.0000
  O      O         0.545907227832150    0.389894319875959    0.944505004308963  0.0000
  O      O         0.319198181378700    0.889655336735839    0.814191457435867  0.0000
  O      O         0.150483529476868    0.721841739401727    0.795765632056468  0.0000
  O      O         0.110756304246287    0.815654950229034    0.761518363048502  0.0000
  O      O         0.203492154982951    0.930041847097722    0.721588905280342  0.0000
  O      O         0.676777136442642    0.945159733354659    0.167049408523195  0.0000
  O      O         0.767056409704731    0.945325861540121    0.167844894610958  0.0000
  O      O         0.166364123744914    0.723150348501748    0.565775363354005  0.0000
  O      O         0.955619650343454    0.666615627635125    0.554519958331742  0.0000
  O      O         0.944218043051839    0.565712701685598    0.722045174416174  0.0000
  O      O         0.344076041136659    0.834084150376538    0.721807067044665  0.0000
  O      O         0.848427008978304    0.389111965915107    0.758928823505668  0.0000
  O      O         0.741808087163933    0.429942761575062    0.889094766694566  0.0000
  O      O         0.684945183525389    0.959318023775527    0.610001283373307  0.0000
  O      O         0.556100000000015    0.220800000000054    0.155499999999961  0.0000
