data_block_1
_audit_creation_date         'Thu Apr 20 17:11:57 2023'
_audit_creation_method       'generated by GDIS v0.90'


_cell_length_a             54.0500
_cell_length_b             54.0130
_cell_length_c             54.0530
_cell_angle_alpha          90.00
_cell_angle_beta           90.00
_cell_angle_gamma          90.00


_symmetry_space_group_name_H-M   'P 1'
_symmetry_Int_Tables_number       1


loop_
_atom_site_label
_atom_site_fract_x
_atom_site_fract_y
_atom_site_fract_z
_atom_site_charge
Si  Si  0.5286    0.9723    0.5683 0
Si  Si  0.6184    0.0634    0.6582 0
Si  Si  0.7504    0.7907    0.6532 0
Si  Si  0.5288    0.0634    0.3874 0
Si  Si  0.3413    0.0633    0.5613 0
Si  Si  0.7894    0.4322    0.4717 0
Si  Si  0.7561    0.3867    0.4715 0
Si  Si  0.6989    0.3864    0.4714 0
Si  Si  0.6655    0.4322    0.4717 0
Si  Si  0.6087    0.4321    0.4717 0
Si  Si  0.6592    0.3816    0.2437 0
Si  Si  0.6998    0.4381    0.3405 0
Si  Si  0.6596    0.3814    0.3004 0
Si  Si  0.6598    0.2440    0.4380 0
Si  Si  0.1197    0.6591    0.3816 0
Si  Si  0.1544    0.4323    0.4717 0
Si  Si  0.1201    0.3877    0.4714 0
Si  Si  0.1198    0.5621    0.6591 0
Si  Si  0.8472    0.7055    0.5621 0
Si  Si  0.7902    0.7052    0.6194 0
Si  Si  0.8473    0.7049    0.6191 0
Si  Si  0.9717    0.5624    0.7040 0
Si  Si  0.0287    0.6195    0.7033 0
Si  Si  0.9719    0.7096    0.2509 0
Si  Si  0.9718    0.6528    0.2507 0
Si  Si  0.7902    0.4383    0.2945 0
 O   O  0.3643    0.0554    0.4555 0
 O   O  0.6666    0.0916    0.5573 0
 O   O  0.6222    0.0915    0.3334 0
 O   O  0.5337    0.0918    0.3945 0
 O   O  0.7723    0.4099    0.4627 0
 O   O  0.7275    0.3933    0.4667 0
 O   O  0.6825    0.4096    0.4629 0
 O   O  0.6371    0.4242    0.4677 0
 O   O  0.1828    0.4239    0.4683 0
 O   O  0.6525    0.4102    0.2387 0
 O   O  0.6675    0.2726    0.3768 0
 O   O  0.6956    0.3495    0.4092 0
 O   O  0.7281    0.4432    0.3334 0
 O   O  0.3633    0.4557    0.7645 0
 O   O  0.3629    0.4555    0.6906 0
 O   O  0.1372    0.4101    0.4624 0
 O   O  0.5902    0.1253    0.3486 0
 O   O  0.1279    0.4559    0.6362 0
 O   O  0.8520    0.7122    0.5907 0
 O   O  0.8186    0.6989    0.5574 0
 O   O  0.8187    0.6982    0.6239 0
 O   O  0.7854    0.7126    0.5909 0
 O   O  0.9671    0.5911    0.7105 0
 O   O  0.7736    0.3189    0.6276 0
 O   O  0.7735    0.3181    0.5538 0
 O   O  0.0457    0.4475    0.3186 0
 O   O  0.0456    0.3733    0.3196 0
 O   O  0.8638    0.4470    0.6821 0
 O   O  0.8634    0.3734    0.6807 0
 O   O  0.9668    0.6812    0.2579 0
 O   O  0.9548    0.2283    0.6443 0
 O   O  0.9544    0.7719    0.7180 0
 O   O  0.0368    0.7269    0.6354 0
 O   O  0.7274    0.0368    0.5455 0
 O   O  0.2818    0.1363    0.7721 0
 O   O  0.3190    0.2577    0.8520 0
 O   O  0.3557    0.2274    0.8637 0
 O   O  0.7582    0.8190    0.2860 0
 O   O  0.4105    0.0581    0.3486 0
 O   O  0.5380    0.0464    0.4098 0
Si  Si  0.0286    0.4723    0.0683 0
Si  Si  0.1184    0.5634    0.1582 0
Si  Si  0.2504    0.2908    0.1532 0
Si  Si  0.0288    0.5634    0.8873 0
Si  Si  0.8413    0.5633    0.0613 0
Si  Si  0.2894    0.9322    0.9717 0
Si  Si  0.2561    0.8867    0.9715 0
Si  Si  0.1989    0.8864    0.9714 0
Si  Si  0.1655    0.9322    0.9717 0
Si  Si  0.1087    0.9321    0.9717 0
Si  Si  0.1592    0.8816    0.7438 0
Si  Si  0.1997    0.9381    0.8405 0
Si  Si  0.1596    0.8814    0.8004 0
Si  Si  0.1598    0.7440    0.9380 0
Si  Si  0.6196    0.1590    0.8816 0
Si  Si  0.6544    0.9323    0.9717 0
Si  Si  0.6201    0.8877    0.9714 0
Si  Si  0.6199    0.0621    0.1591 0
Si  Si  0.3472    0.2055    0.0621 0
Si  Si  0.2902    0.2052    0.1193 0
Si  Si  0.3473    0.2049    0.1191 0
Si  Si  0.4717    0.0624    0.2040 0
Si  Si  0.5288    0.1195    0.2032 0
Si  Si  0.4719    0.2096    0.7509 0
Si  Si  0.4717    0.1527    0.7507 0
Si  Si  0.2901    0.9383    0.7945 0
 O   O  0.8643    0.5554    0.9555 0
 O   O  0.1666    0.5916    0.0573 0
 O   O  0.1222    0.5915    0.8334 0
 O   O  0.0337    0.5918    0.8945 0
 O   O  0.2722    0.9099    0.9627 0
 O   O  0.2275    0.8933    0.9667 0
 O   O  0.1825    0.9096    0.9629 0
 O   O  0.1371    0.9242    0.9677 0
 O   O  0.6828    0.9239    0.9683 0
 O   O  0.1525    0.9102    0.7387 0
 O   O  0.1674    0.7726    0.8768 0
 O   O  0.1956    0.8495    0.9092 0
 O   O  0.2281    0.9432    0.8334 0
 O   O  0.8633    0.9557    0.2645 0
 O   O  0.8629    0.9555    0.1906 0
 O   O  0.6372    0.9100    0.9624 0
 O   O  0.0902    0.6253    0.8486 0
 O   O  0.6279    0.9559    0.1362 0
 O   O  0.3520    0.2122    0.0907 0
 O   O  0.3186    0.1989    0.0574 0
 O   O  0.3187    0.1982    0.1239 0
 O   O  0.2854    0.2125    0.0909 0
 O   O  0.4671    0.0911    0.2105 0
 O   O  0.2736    0.8190    0.1276 0
 O   O  0.2735    0.8181    0.0538 0
 O   O  0.5457    0.9474    0.8186 0
 O   O  0.5456    0.8733    0.8196 0
 O   O  0.3639    0.9470    0.1821 0
 O   O  0.3634    0.8734    0.1807 0
 O   O  0.4668    0.1812    0.7579 0
 O   O  0.4548    0.7283    0.1443 0
 O   O  0.4544    0.2719    0.2180 0
 O   O  0.5368    0.2270    0.1354 0
 O   O  0.2274    0.5368    0.0455 0
 O   O  0.7818    0.6363    0.2721 0
 O   O  0.8190    0.7577    0.3520 0
 O   O  0.8557    0.7274    0.3638 0
 O   O  0.2582    0.3190    0.7860 0
 O   O  0.9105    0.5581    0.8487 0
 O   O  0.0380    0.5464    0.9098 0
Si  Si  0.4719    0.0288    0.5683 0
Si  Si  0.3821    0.9377    0.6582 0
Si  Si  0.2501    0.2103    0.6532 0
Si  Si  0.4717    0.9377    0.3874 0
Si  Si  0.6592    0.9378    0.5613 0
Si  Si  0.2110    0.5689    0.4717 0
Si  Si  0.2444    0.6144    0.4715 0
Si  Si  0.3015    0.6147    0.4714 0
Si  Si  0.3349    0.5689    0.4717 0
Si  Si  0.3917    0.5690    0.4717 0
Si  Si  0.3412    0.6195    0.2437 0
Si  Si  0.3007    0.5631    0.3405 0
Si  Si  0.3409    0.6197    0.3004 0
Si  Si  0.3407    0.7570    0.4380 0
Si  Si  0.8808    0.3420    0.3816 0
Si  Si  0.8460    0.5688    0.4717 0
Si  Si  0.8804    0.6134    0.4714 0
Si  Si  0.8806    0.4390    0.6591 0
Si  Si  0.1532    0.2956    0.5621 0
Si  Si  0.2103    0.2959    0.6193 0
Si  Si  0.1532    0.2962    0.6191 0
Si  Si  0.0287    0.4386    0.7040 0
Si  Si  0.9717    0.3816    0.7033 0
Si  Si  0.0286    0.2915    0.2509 0
Si  Si  0.0287    0.3483    0.2507 0
Si  Si  0.2103    0.5628    0.2945 0
 O   O  0.6361    0.9457    0.4555 0
 O   O  0.3339    0.9094    0.5573 0
 O   O  0.3782    0.9095    0.3334 0
 O   O  0.4667    0.9092    0.3945 0
 O   O  0.2282    0.5912    0.4627 0
 O   O  0.2730    0.6078    0.4667 0
 O   O  0.3179    0.5915    0.4629 0
 O   O  0.3634    0.5769    0.4677 0
 O   O  0.8177    0.5771    0.4683 0
 O   O  0.3480    0.5909    0.2387 0
 O   O  0.3330    0.7285    0.3768 0
 O   O  0.3049    0.6516    0.4092 0
 O   O  0.2723    0.5579    0.3334 0
 O   O  0.6371    0.5454    0.7645 0
 O   O  0.6376    0.5456    0.6906 0
 O   O  0.8633    0.5910    0.4624 0
 O   O  0.4103    0.8758    0.3486 0
 O   O  0.8725    0.5452    0.6362 0
 O   O  0.1484    0.2889    0.5907 0
 O   O  0.1819    0.3022    0.5574 0
 O   O  0.1818    0.3029    0.6239 0
 O   O  0.2151    0.2886    0.5909 0
 O   O  0.0334    0.4100    0.7105 0
 O   O  0.2269    0.6821    0.6276 0
 O   O  0.2270    0.6830    0.5538 0
 O   O  0.9547    0.5536    0.3186 0
 O   O  0.9549    0.6278    0.3196 0
 O   O  0.1366    0.5541    0.6821 0
 O   O  0.1371    0.6277    0.6807 0
 O   O  0.0336    0.3199    0.2579 0
 O   O  0.0457    0.7728    0.6443 0
 O   O  0.0461    0.2292    0.7180 0
 O   O  0.9637    0.2741    0.6354 0
 O   O  0.2731    0.9643    0.5455 0
 O   O  0.7187    0.8647    0.7721 0
 O   O  0.6814    0.7434    0.8520 0
 O   O  0.6447    0.7737    0.8638 0
 O   O  0.2423    0.1821    0.2860 0
 O   O  0.5900    0.9431    0.3486 0
 O   O  0.4625    0.9547    0.4098 0
Si  Si  0.9719    0.5288    0.0683 0
Si  Si  0.8821    0.4377    0.1582 0
Si  Si  0.7501    0.7103    0.1532 0
Si  Si  0.9717    0.4377    0.8874 0
Si  Si  0.1592    0.4378    0.0613 0
Si  Si  0.7110    0.0689    0.9717 0
Si  Si  0.7444    0.1144    0.9715 0
Si  Si  0.8015    0.1146    0.9714 0
Si  Si  0.8349    0.0689    0.9717 0
Si  Si  0.8917    0.0690    0.9717 0
Si  Si  0.8412    0.1194    0.7438 0
Si  Si  0.8007    0.0630    0.8405 0
Si  Si  0.8409    0.1197    0.8004 0
Si  Si  0.8406    0.2570    0.9380 0
Si  Si  0.3808    0.8420    0.8816 0
Si  Si  0.3460    0.0688    0.9717 0
Si  Si  0.3804    0.1134    0.9714 0
Si  Si  0.3806    0.9391    0.1591 0
Si  Si  0.6532    0.7956    0.0621 0
Si  Si  0.7103    0.7959    0.1193 0
Si  Si  0.6532    0.7962    0.1191 0
Si  Si  0.5288    0.9386    0.2040 0
Si  Si  0.4717    0.8816    0.2033 0
Si  Si  0.5286    0.7915    0.7509 0
Si  Si  0.5287    0.8483    0.7507 0
Si  Si  0.7103    0.0628    0.7945 0
 O   O  0.1361    0.4457    0.9555 0
 O   O  0.8339    0.4095    0.0573 0
 O   O  0.8782    0.4095    0.8334 0
 O   O  0.9667    0.4092    0.8945 0
 O   O  0.7282    0.0912    0.9627 0
 O   O  0.7730    0.1078    0.9667 0
 O   O  0.8179    0.0915    0.9629 0
 O   O  0.8633    0.0769    0.9677 0
 O   O  0.3176    0.0771    0.9683 0
 O   O  0.8480    0.0909    0.7387 0
 O   O  0.8330    0.2285    0.8768 0
 O   O  0.8049    0.1516    0.9092 0
 O   O  0.7723    0.0579    0.8334 0
 O   O  0.1371    0.0454    0.2645 0
 O   O  0.1376    0.0456    0.1906 0
 O   O  0.3633    0.0910    0.9624 0
 O   O  0.9102    0.3758    0.8486 0
 O   O  0.3726    0.0452    0.1362 0
 O   O  0.6485    0.7889    0.0907 0
 O   O  0.6819    0.8022    0.0574 0
 O   O  0.6818    0.8029    0.1240 0
 O   O  0.7151    0.7885    0.0909 0
 O   O  0.5334    0.9100    0.2105 0
 O   O  0.7269    0.1822    0.1276 0
 O   O  0.7270    0.1830    0.0538 0
 O   O  0.4547    0.0536    0.8186 0
 O   O  0.4549    0.1278    0.8196 0
 O   O  0.6366    0.0541    0.1821 0
 O   O  0.6371    0.1277    0.1807 0
 O   O  0.5336    0.8199    0.7579 0
 O   O  0.5457    0.2728    0.1443 0
 O   O  0.5461    0.7292    0.2180 0
 O   O  0.4637    0.7742    0.1354 0
 O   O  0.7731    0.4643    0.0455 0
 O   O  0.2187    0.3647    0.2721 0
 O   O  0.1814    0.2434    0.3520 0
 O   O  0.1447    0.2737    0.3638 0
 O   O  0.7423    0.6820    0.7860 0
 O   O  0.0900    0.4430    0.8486 0
 O   O  0.9625    0.4547    0.9098 0
Si  Si  0.4719    0.9723    0.4317 0
Si  Si  0.3821    0.0634    0.3418 0
Si  Si  0.2501    0.7908    0.3468 0
Si  Si  0.4717    0.0634    0.6126 0
Si  Si  0.6592    0.0633    0.4387 0
Si  Si  0.2110    0.4323    0.5283 0
Si  Si  0.2444    0.3867    0.5285 0
Si  Si  0.3015    0.3864    0.5286 0
Si  Si  0.3349    0.4322    0.5283 0
Si  Si  0.3917    0.4321    0.5283 0
Si  Si  0.3412    0.3817    0.7562 0
Si  Si  0.3007    0.4381    0.6595 0
Si  Si  0.3409    0.3814    0.6996 0
Si  Si  0.3406    0.2441    0.5619 0
Si  Si  0.8808    0.6591    0.6184 0
Si  Si  0.8460    0.4323    0.5283 0
Si  Si  0.8804    0.3877    0.5286 0
Si  Si  0.8806    0.5621    0.3408 0
Si  Si  0.1532    0.7055    0.4379 0
Si  Si  0.2103    0.7052    0.3806 0
Si  Si  0.1532    0.7049    0.3809 0
Si  Si  0.0287    0.5625    0.2960 0
Si  Si  0.9717    0.6195    0.2967 0
Si  Si  0.0286    0.7096    0.7491 0
Si  Si  0.0287    0.6527    0.7493 0
Si  Si  0.2103    0.4383    0.7055 0
 O   O  0.6361    0.0554    0.5446 0
 O   O  0.3339    0.0916    0.4427 0
 O   O  0.3782    0.0915    0.6666 0
 O   O  0.4667    0.0918    0.6055 0
 O   O  0.2282    0.4099    0.5373 0
 O   O  0.2730    0.3933    0.5333 0
 O   O  0.3179    0.4096    0.5371 0
 O   O  0.3634    0.4242    0.5323 0
 O   O  0.8177    0.4239    0.5317 0
 O   O  0.3480    0.4102    0.7613 0
 O   O  0.3330    0.2726    0.6232 0
 O   O  0.3049    0.3495    0.5908 0
 O   O  0.2723    0.4432    0.6666 0
 O   O  0.6371    0.4557    0.2355 0
 O   O  0.6376    0.4555    0.3094 0
 O   O  0.8633    0.4101    0.5376 0
 O   O  0.4102    0.1253    0.6514 0
 O   O  0.8726    0.4559    0.3638 0
 O   O  0.1484    0.7122    0.4093 0
 O   O  0.1819    0.6989    0.4426 0
 O   O  0.1818    0.6982    0.3760 0
 O   O  0.2151    0.7126    0.4091 0
 O   O  0.0334    0.5911    0.2895 0
 O   O  0.2269    0.3190    0.3724 0
 O   O  0.2270    0.3181    0.4462 0
 O   O  0.9547    0.4475    0.6814 0
 O   O  0.9549    0.3733    0.6804 0
 O   O  0.1366    0.4470    0.3179 0
 O   O  0.1371    0.3734    0.3193 0
 O   O  0.0336    0.6812    0.7421 0
 O   O  0.0457    0.2283    0.3557 0
 O   O  0.0461    0.7719    0.2819 0
 O   O  0.9637    0.7270    0.3645 0
 O   O  0.2731    0.0368    0.4545 0
 O   O  0.7187    0.1364    0.2278 0
 O   O  0.6814    0.2577    0.1480 0
 O   O  0.6448    0.2274    0.1362 0
 O   O  0.2422    0.8190    0.7140 0
 O   O  0.5900    0.0581    0.6514 0
 O   O  0.4625    0.0464    0.5902 0
Si  Si  0.9719    0.4723    0.9317 0
Si  Si  0.8821    0.5634    0.8418 0
Si  Si  0.7501    0.2908    0.8468 0
Si  Si  0.9717    0.5634    0.1127 0
Si  Si  0.1592    0.5633    0.9387 0
Si  Si  0.7110    0.9322    0.0283 0
Si  Si  0.7444    0.8867    0.0285 0
Si  Si  0.8015    0.8864    0.0286 0
Si  Si  0.8349    0.9322    0.0283 0
Si  Si  0.8918    0.9321    0.0283 0
Si  Si  0.8412    0.8817    0.2562 0
Si  Si  0.8007    0.9381    0.1595 0
Si  Si  0.8409    0.8814    0.1995 0
Si  Si  0.8407    0.7441    0.0619 0
Si  Si  0.3808    0.1591    0.1184 0
Si  Si  0.3461    0.9323    0.0283 0
Si  Si  0.3804    0.8877    0.0286 0
Si  Si  0.3806    0.0621    0.8409 0
Si  Si  0.6532    0.2055    0.9379 0
Si  Si  0.7103    0.2052    0.8806 0
Si  Si  0.6532    0.2049    0.8808 0
Si  Si  0.5287    0.0625    0.7960 0
Si  Si  0.4717    0.1195    0.7967 0
Si  Si  0.5286    0.2096    0.2491 0
Si  Si  0.5287    0.1527    0.2493 0
Si  Si  0.7103    0.9383    0.2054 0
 O   O  0.1362    0.5554    0.0445 0
 O   O  0.8339    0.5916    0.9427 0
 O   O  0.8782    0.5916    0.1666 0
 O   O  0.9667    0.5919    0.1055 0
 O   O  0.7282    0.9099    0.0373 0
 O   O  0.7730    0.8933    0.0333 0
 O   O  0.8179    0.9096    0.0371 0
 O   O  0.8634    0.9242    0.0322 0
 O   O  0.3177    0.9240    0.0316 0
 O   O  0.8480    0.9102    0.2613 0
 O   O  0.8330    0.7726    0.1232 0
 O   O  0.8049    0.8495    0.0908 0
 O   O  0.7723    0.9432    0.1666 0
 O   O  0.1371    0.9557    0.7355 0
 O   O  0.1376    0.9555    0.8094 0
 O   O  0.3633    0.9101    0.0376 0
 O   O  0.9103    0.6253    0.1514 0
 O   O  0.3725    0.9559    0.8638 0
 O   O  0.6484    0.2122    0.9093 0
 O   O  0.6818    0.1989    0.9426 0
 O   O  0.6818    0.1982    0.8760 0
 O   O  0.7151    0.2125    0.9091 0
 O   O  0.5334    0.0911    0.7895 0
 O   O  0.7269    0.8189    0.8724 0
 O   O  0.7270    0.8181    0.9462 0
 O   O  0.4547    0.9475    0.1814 0
 O   O  0.4549    0.8733    0.1804 0
 O   O  0.6366    0.9470    0.8179 0
 O   O  0.6371    0.8734    0.8193 0
 O   O  0.5336    0.1812    0.2420 0
 O   O  0.5457    0.7283    0.8557 0
 O   O  0.5461    0.2719    0.7819 0
 O   O  0.4637    0.2270    0.8645 0
 O   O  0.7731    0.5368    0.9545 0
 O   O  0.2187    0.6363    0.7279 0
 O   O  0.1814    0.7577    0.6480 0
 O   O  0.1447    0.7274    0.6362 0
 O   O  0.7423    0.3190    0.2140 0
 O   O  0.0900    0.5581    0.1514 0
 O   O  0.9625    0.5464    0.0902 0
Si  Si  0.5286    0.0288    0.4317 0
Si  Si  0.6184    0.9378    0.3418 0
Si  Si  0.7504    0.2103    0.3468 0
Si  Si  0.5288    0.9377    0.6126 0
Si  Si  0.3413    0.9378    0.4387 0
Si  Si  0.7894    0.5689    0.5283 0
Si  Si  0.7561    0.6144    0.5285 0
Si  Si  0.6989    0.6147    0.5286 0
Si  Si  0.6655    0.5689    0.5283 0
Si  Si  0.6087    0.5690    0.5283 0
Si  Si  0.6592    0.6194    0.7563 0
Si  Si  0.6997    0.5630    0.6595 0
Si  Si  0.6596    0.6197    0.6996 0
Si  Si  0.6598    0.7570    0.5619 0
Si  Si  0.1196    0.3421    0.6184 0
Si  Si  0.1544    0.5688    0.5283 0
Si  Si  0.1201    0.6134    0.5286 0
Si  Si  0.1198    0.4390    0.3408 0
Si  Si  0.8472    0.2956    0.4379 0
Si  Si  0.7902    0.2959    0.3806 0
Si  Si  0.8473    0.2962    0.3809 0
Si  Si  0.9718    0.4386    0.2960 0
Si  Si  0.0288    0.3816    0.2967 0
Si  Si  0.9719    0.2915    0.7491 0
Si  Si  0.9718    0.3483    0.7493 0
Si  Si  0.7901    0.5628    0.7055 0
 O   O  0.3643    0.9457    0.5446 0
 O   O  0.6666    0.9095    0.4427 0
 O   O  0.6223    0.9095    0.6667 0
 O   O  0.5337    0.9092    0.6055 0
 O   O  0.7723    0.5912    0.5373 0
 O   O  0.7275    0.6078    0.5333 0
 O   O  0.6825    0.5915    0.5371 0
 O   O  0.6371    0.5769    0.5323 0
 O   O  0.1828    0.5771    0.5317 0
 O   O  0.6525    0.5909    0.7613 0
 O   O  0.6675    0.7285    0.6232 0
 O   O  0.6956    0.6516    0.5908 0
 O   O  0.7281    0.5579    0.6666 0
 O   O  0.3633    0.5454    0.2355 0
 O   O  0.3629    0.5456    0.3094 0
 O   O  0.1372    0.5910    0.5376 0
 O   O  0.5902    0.8758    0.6514 0
 O   O  0.1279    0.5452    0.3638 0
 O   O  0.8520    0.2889    0.4093 0
 O   O  0.8186    0.3022    0.4426 0
 O   O  0.8187    0.3029    0.3760 0
 O   O  0.7854    0.2885    0.4091 0
 O   O  0.9671    0.4100    0.2895 0
 O   O  0.7736    0.6822    0.3724 0
 O   O  0.7735    0.6830    0.4462 0
 O   O  0.0457    0.5536    0.6814 0
 O   O  0.0456    0.6278    0.6804 0
 O   O  0.8638    0.5541    0.3179 0
 O   O  0.8634    0.6277    0.3193 0
 O   O  0.9668    0.3199    0.7420 0
 O   O  0.9548    0.7728    0.3557 0
 O   O  0.9544    0.2292    0.2819 0
 O   O  0.0368    0.2741    0.3645 0
 O   O  0.7274    0.9643    0.4545 0
 O   O  0.2818    0.8648    0.2279 0
 O   O  0.3190    0.7434    0.1480 0
 O   O  0.3557    0.7737    0.1362 0
 O   O  0.7582    0.1821    0.7140 0
 O   O  0.4105    0.9430    0.6514 0
 O   O  0.5380    0.9547    0.5902 0
Si  Si  0.0286    0.5288    0.9317 0
Si  Si  0.1184    0.4377    0.8418 0
Si  Si  0.2503    0.7103    0.8468 0
Si  Si  0.0288    0.4377    0.1126 0
Si  Si  0.8413    0.4378    0.9387 0
Si  Si  0.2894    0.0689    0.0283 0
Si  Si  0.2561    0.1144    0.0285 0
Si  Si  0.1989    0.1147    0.0286 0
Si  Si  0.1655    0.0689    0.0283 0
Si  Si  0.1087    0.0690    0.0283 0
Si  Si  0.1592    0.1194    0.2562 0
Si  Si  0.1997    0.0630    0.1595 0
Si  Si  0.1596    0.1197    0.1995 0
Si  Si  0.1598    0.2571    0.0619 0
Si  Si  0.6197    0.8421    0.1184 0
Si  Si  0.6544    0.0688    0.0283 0
Si  Si  0.6201    0.1134    0.0285 0
Si  Si  0.6199    0.9390    0.8409 0
Si  Si  0.3472    0.7956    0.9379 0
Si  Si  0.2902    0.7959    0.8806 0
Si  Si  0.3473    0.7962    0.8809 0
Si  Si  0.4717    0.9386    0.7960 0
Si  Si  0.5288    0.8816    0.7967 0
Si  Si  0.4719    0.7915    0.2491 0
Si  Si  0.4718    0.8484    0.2493 0
Si  Si  0.2902    0.0628    0.2054 0
 O   O  0.8643    0.4457    0.0446 0
 O   O  0.1666    0.4095    0.9427 0
 O   O  0.1223    0.4096    0.1666 0
 O   O  0.0337    0.4092    0.1055 0
 O   O  0.2723    0.0912    0.0373 0
 O   O  0.2275    0.1078    0.0333 0
 O   O  0.1825    0.0915    0.0371 0
 O   O  0.1371    0.0769    0.0322 0
 O   O  0.6828    0.0772    0.0316 0
 O   O  0.1525    0.0909    0.2613 0
 O   O  0.1675    0.2285    0.1232 0
 O   O  0.1956    0.1516    0.0908 0
 O   O  0.2281    0.0579    0.1666 0
 O   O  0.8633    0.0454    0.7355 0
 O   O  0.8629    0.0456    0.8094 0
 O   O  0.6372    0.0911    0.0376 0
 O   O  0.0902    0.3758    0.1514 0
 O   O  0.6279    0.0452    0.8638 0
 O   O  0.3520    0.7889    0.9093 0
 O   O  0.3186    0.8022    0.9426 0
 O   O  0.3187    0.8029    0.8760 0
 O   O  0.2853    0.7885    0.9091 0
 O   O  0.4671    0.9100    0.7895 0
 O   O  0.2736    0.1821    0.8724 0
 O   O  0.2735    0.1830    0.9462 0
 O   O  0.5457    0.0536    0.1814 0
 O   O  0.5456    0.1278    0.1804 0
 O   O  0.3638    0.0541    0.8179 0
 O   O  0.3634    0.1277    0.8193 0
 O   O  0.4668    0.8199    0.2421 0
 O   O  0.4548    0.2728    0.8557 0
 O   O  0.4544    0.7292    0.7820 0
 O   O  0.5368    0.7741    0.8646 0
 O   O  0.2274    0.4643    0.9545 0
 O   O  0.7818    0.3647    0.7279 0
 O   O  0.8190    0.2434    0.6480 0
 O   O  0.8557    0.2737    0.6362 0
 O   O  0.2582    0.6821    0.2140 0
 O   O  0.9105    0.4430    0.1514 0
 O   O  0.0380    0.4547    0.0902 0
Si  Si  0.5686    0.5289    0.9718 0
Si  Si  0.6585    0.6188    0.0629 0
Si  Si  0.6534    0.7507    0.7902 0
Si  Si  0.3876    0.5291    0.0629 0
Si  Si  0.5616    0.3416    0.0628 0
Si  Si  0.4719    0.7897    0.4317 0
Si  Si  0.4717    0.7564    0.3861 0
Si  Si  0.4716    0.6993    0.3859 0
Si  Si  0.4719    0.6659    0.4316 0
Si  Si  0.4719    0.6090    0.4316 0
Si  Si  0.2440    0.6595    0.3811 0
Si  Si  0.3408    0.7000    0.4375 0
Si  Si  0.3007    0.6599    0.3809 0
Si  Si  0.4383    0.6602    0.2436 0
Si  Si  0.3818    0.1200    0.6585 0
Si  Si  0.4719    0.1547    0.4317 0
Si  Si  0.4717    0.1204    0.3871 0
Si  Si  0.6593    0.1202    0.5615 0
Si  Si  0.5623    0.8476    0.7050 0
Si  Si  0.6196    0.7904    0.7047 0
Si  Si  0.6194    0.8476    0.7044 0
Si  Si  0.7043    0.9720    0.5619 0
Si  Si  0.7035    0.0291    0.6189 0
Si  Si  0.2512    0.9722    0.7090 0
Si  Si  0.2510    0.9720    0.6522 0
Si  Si  0.2948    0.7904    0.4377 0
 O   O  0.4557    0.3646    0.0549 0
 O   O  0.5575    0.6670    0.0911 0
 O   O  0.3335    0.6226    0.0910 0
 O   O  0.3949    0.5341    0.0913 0
 O   O  0.4630    0.7726    0.4093 0
 O   O  0.4670    0.7278    0.3927 0
 O   O  0.4631    0.6829    0.4090 0
 O   O  0.4680    0.6375    0.4237 0
 O   O  0.4686    0.1831    0.4235 0
 O   O  0.2389    0.6527    0.4096 0
 O   O  0.3770    0.6678    0.2721 0
 O   O  0.4094    0.6959    0.3490 0
 O   O  0.3337    0.7285    0.4426 0
 O   O  0.7647    0.3636    0.4551 0
 O   O  0.6908    0.3632    0.4550 0
 O   O  0.4626    0.1375    0.4095 0
 O   O  0.3488    0.5905    0.1247 0
 O   O  0.6364    0.1283    0.4553 0
 O   O  0.5909    0.8524    0.7117 0
 O   O  0.5576    0.8189    0.6984 0
 O   O  0.6242    0.8190    0.6977 0
 O   O  0.5912    0.7856    0.7120 0
 O   O  0.7108    0.9673    0.5906 0
 O   O  0.6278    0.7739    0.3184 0
 O   O  0.5540    0.7738    0.3175 0
 O   O  0.3188    0.0461    0.4468 0
 O   O  0.3199    0.0459    0.3728 0
 O   O  0.6823    0.8642    0.4464 0
 O   O  0.6809    0.8637    0.3729 0
 O   O  0.2582    0.9671    0.6806 0
 O   O  0.6445    0.9551    0.2278 0
 O   O  0.7183    0.9547    0.7713 0
 O   O  0.6357    0.0372    0.7264 0
 O   O  0.5457    0.7277    0.0362 0
 O   O  0.7724    0.2821    0.1358 0
 O   O  0.8522    0.3193    0.2571 0
 O   O  0.8640    0.3561    0.2268 0
 O   O  0.2862    0.7586    0.8185 0
 O   O  0.3488    0.4108    0.0575 0
 O   O  0.4100    0.5383    0.0458 0
Si  Si  0.0686    0.0289    0.4718 0
Si  Si  0.1585    0.1187    0.5628 0
Si  Si  0.1534    0.2507    0.2902 0
Si  Si  0.8876    0.0291    0.5628 0
Si  Si  0.0616    0.8416    0.5627 0
Si  Si  0.9719    0.2897    0.9317 0
Si  Si  0.9717    0.2564    0.8861 0
Si  Si  0.9716    0.1992    0.8859 0
Si  Si  0.9719    0.1659    0.9316 0
Si  Si  0.9719    0.1090    0.9316 0
Si  Si  0.7440    0.1595    0.8811 0
Si  Si  0.8408    0.2000    0.9375 0
Si  Si  0.8007    0.1599    0.8809 0
Si  Si  0.9383    0.1602    0.7436 0
Si  Si  0.8819    0.6200    0.1585 0
Si  Si  0.9719    0.6547    0.9317 0
Si  Si  0.9717    0.6204    0.8871 0
Si  Si  0.1593    0.6202    0.0616 0
Si  Si  0.0623    0.3476    0.2050 0
Si  Si  0.1196    0.2905    0.2047 0
Si  Si  0.1194    0.3476    0.2043 0
Si  Si  0.2043    0.4720    0.0619 0
Si  Si  0.2035    0.5291    0.1189 0
Si  Si  0.7512    0.4722    0.2090 0
Si  Si  0.7510    0.4721    0.1522 0
Si  Si  0.7947    0.2904    0.9377 0
 O   O  0.9557    0.8646    0.5549 0
 O   O  0.0575    0.1670    0.5911 0
 O   O  0.8335    0.1226    0.5910 0
 O   O  0.8948    0.0341    0.5913 0
 O   O  0.9629    0.2726    0.9093 0
 O   O  0.9670    0.2278    0.8927 0
 O   O  0.9631    0.1829    0.9090 0
 O   O  0.9680    0.1374    0.9237 0
 O   O  0.9686    0.6831    0.9235 0
 O   O  0.7389    0.1527    0.9096 0
 O   O  0.8770    0.1678    0.7721 0
 O   O  0.9094    0.1959    0.8490 0
 O   O  0.8337    0.2285    0.9426 0
 O   O  0.2647    0.8636    0.9551 0
 O   O  0.1908    0.8632    0.9549 0
 O   O  0.9626    0.6375    0.9095 0
 O   O  0.8487    0.0905    0.6247 0
 O   O  0.1364    0.6283    0.9553 0
 O   O  0.0909    0.3524    0.2116 0
 O   O  0.0576    0.3189    0.1984 0
 O   O  0.1242    0.3190    0.1977 0
 O   O  0.0912    0.2856    0.2120 0
 O   O  0.2108    0.4674    0.0906 0
 O   O  0.1278    0.2739    0.8184 0
 O   O  0.0540    0.2738    0.8175 0
 O   O  0.8188    0.5460    0.9469 0
 O   O  0.8199    0.5459    0.8729 0
 O   O  0.1823    0.3641    0.9464 0
 O   O  0.1809    0.3637    0.8729 0
 O   O  0.7583    0.4671    0.1806 0
 O   O  0.1445    0.4551    0.7278 0
 O   O  0.2183    0.4547    0.2713 0
 O   O  0.1357    0.5372    0.2264 0
 O   O  0.0457    0.2277    0.5362 0
 O   O  0.2724    0.7821    0.6358 0
 O   O  0.3522    0.8193    0.7571 0
 O   O  0.3640    0.8561    0.7268 0
 O   O  0.7862    0.2586    0.3185 0
 O   O  0.8488    0.9108    0.5576 0
 O   O  0.9100    0.0383    0.5458 0
Si  Si  0.5686    0.4722    0.0282 0
Si  Si  0.6585    0.3823    0.9372 0
Si  Si  0.6534    0.2504    0.2098 0
Si  Si  0.3876    0.4719    0.9371 0
Si  Si  0.5616    0.6595    0.9373 0
Si  Si  0.4719    0.2114    0.5683 0
Si  Si  0.4717    0.2447    0.6139 0
Si  Si  0.4716    0.3018    0.6141 0
Si  Si  0.4719    0.3352    0.5684 0
Si  Si  0.4719    0.3921    0.5684 0
Si  Si  0.2440    0.3416    0.6189 0
Si  Si  0.3408    0.3011    0.5625 0
Si  Si  0.3007    0.3412    0.6191 0
Si  Si  0.4383    0.3409    0.7564 0
Si  Si  0.3819    0.8811    0.3415 0
Si  Si  0.4719    0.8464    0.5683 0
Si  Si  0.4717    0.8807    0.6129 0
Si  Si  0.6593    0.8809    0.4385 0
Si  Si  0.5623    0.1535    0.2950 0
Si  Si  0.6196    0.2106    0.2953 0
Si  Si  0.6194    0.1535    0.2957 0
Si  Si  0.7043    0.0291    0.4380 0
Si  Si  0.7035    0.9720    0.3811 0
Si  Si  0.2512    0.0289    0.2910 0
Si  Si  0.2510    0.0291    0.3478 0
Si  Si  0.2948    0.2106    0.5623 0
 O   O  0.4557    0.6364    0.9451 0
 O   O  0.5575    0.3341    0.9089 0
 O   O  0.3335    0.3785    0.9090 0
 O   O  0.3948    0.4670    0.9087 0
 O   O  0.4629    0.2285    0.5907 0
 O   O  0.4670    0.2733    0.6073 0
 O   O  0.4631    0.3182    0.5910 0
 O   O  0.4680    0.3637    0.5763 0
 O   O  0.4686    0.8180    0.5766 0
 O   O  0.2389    0.3484    0.5904 0
 O   O  0.3770    0.3333    0.7279 0
 O   O  0.4094    0.3052    0.6510 0
 O   O  0.3337    0.2726    0.5574 0
 O   O  0.7647    0.6374    0.5449 0
 O   O  0.6908    0.6379    0.5450 0
 O   O  0.4626    0.8636    0.5905 0
 O   O  0.3487    0.4105    0.8753 0
 O   O  0.6364    0.8728    0.5447 0
 O   O  0.5909    0.1487    0.2883 0
 O   O  0.5576    0.1822    0.3016 0
 O   O  0.6242    0.1821    0.3023 0
 O   O  0.5912    0.2155    0.2880 0
 O   O  0.7108    0.0338    0.4094 0
 O   O  0.6278    0.2272    0.6816 0
 O   O  0.5540    0.2273    0.6824 0
 O   O  0.3188    0.9550    0.5531 0
 O   O  0.3199    0.9552    0.6272 0
 O   O  0.6823    0.1369    0.5536 0
 O   O  0.6809    0.1374    0.6271 0
 O   O  0.2583    0.0340    0.3194 0
 O   O  0.6445    0.0460    0.7722 0
 O   O  0.7183    0.0464    0.2286 0
 O   O  0.6357    0.9639    0.2736 0
 O   O  0.5457    0.2734    0.9638 0
 O   O  0.7724    0.7190    0.8642 0
 O   O  0.8522    0.6817    0.7429 0
 O   O  0.8640    0.6450    0.7732 0
 O   O  0.2862    0.2425    0.1815 0
 O   O  0.3488    0.5903    0.9424 0
 O   O  0.4100    0.4627    0.9542 0
Si  Si  0.0686    0.9722    0.5282 0
Si  Si  0.1585    0.8823    0.4372 0
Si  Si  0.1534    0.7504    0.7098 0
Si  Si  0.8876    0.9720    0.4371 0
Si  Si  0.0616    0.1595    0.4372 0
Si  Si  0.9719    0.7114    0.0683 0
Si  Si  0.9717    0.7447    0.1139 0
Si  Si  0.9717    0.8019    0.1141 0
Si  Si  0.9719    0.8352    0.0683 0
Si  Si  0.9720    0.8921    0.0684 0
Si  Si  0.7440    0.8416    0.1189 0
Si  Si  0.8408    0.8011    0.0625 0
Si  Si  0.8007    0.8412    0.1191 0
Si  Si  0.9383    0.8409    0.2564 0
Si  Si  0.8819    0.3811    0.8415 0
Si  Si  0.9719    0.3464    0.0683 0
Si  Si  0.9717    0.3807    0.1129 0
Si  Si  0.1593    0.3809    0.9385 0
Si  Si  0.0623    0.6535    0.7950 0
Si  Si  0.1196    0.7106    0.7953 0
Si  Si  0.1194    0.6534    0.7956 0
Si  Si  0.2043    0.5291    0.9381 0
Si  Si  0.2035    0.4720    0.8811 0
Si  Si  0.7512    0.5289    0.7910 0
Si  Si  0.7510    0.5290    0.8478 0
Si  Si  0.7948    0.7107    0.0623 0
 O   O  0.9557    0.1365    0.4451 0
 O   O  0.0575    0.8341    0.4089 0
 O   O  0.8335    0.8785    0.4090 0
 O   O  0.8949    0.9670    0.4087 0
 O   O  0.9630    0.7285    0.0907 0
 O   O  0.9670    0.7733    0.1073 0
 O   O  0.9631    0.8182    0.0910 0
 O   O  0.9680    0.8636    0.0763 0
 O   O  0.9686    0.3180    0.0765 0
 O   O  0.7389    0.8484    0.0904 0
 O   O  0.8770    0.8333    0.2279 0
 O   O  0.9094    0.8053    0.1510 0
 O   O  0.8337    0.7726    0.0574 0
 O   O  0.2647    0.1374    0.0449 0
 O   O  0.1908    0.1379    0.0450 0
 O   O  0.9626    0.3636    0.0905 0
 O   O  0.8487    0.9106    0.3753 0
 O   O  0.1364    0.3728    0.0447 0
 O   O  0.0909    0.6487    0.7883 0
 O   O  0.0576    0.6822    0.8016 0
 O   O  0.1242    0.6821    0.8023 0
 O   O  0.0911    0.7154    0.7880 0
 O   O  0.2107    0.5337    0.9094 0
 O   O  0.1278    0.7272    0.1816 0
 O   O  0.0540    0.7273    0.1825 0
 O   O  0.8188    0.4550    0.0532 0
 O   O  0.8199    0.4552    0.1272 0
 O   O  0.1823    0.6370    0.0536 0
 O   O  0.1809    0.6374    0.1271 0
 O   O  0.7583    0.5340    0.8194 0
 O   O  0.1445    0.5460    0.2722 0
 O   O  0.2183    0.5464    0.7287 0
 O   O  0.1356    0.4639    0.7736 0
 O   O  0.0457    0.7734    0.4638 0
 O   O  0.2724    0.2190    0.3642 0
 O   O  0.3522    0.1817    0.2429 0
 O   O  0.3640    0.1450    0.2731 0
 O   O  0.7862    0.7425    0.6815 0
 O   O  0.8488    0.0903    0.4424 0
 O   O  0.9100    0.9628    0.4541 0
Si  Si  0.4318    0.4722    0.9718 0
Si  Si  0.3420    0.3824    0.0628 0
Si  Si  0.3470    0.2504    0.7902 0
Si  Si  0.6129    0.4720    0.0629 0
Si  Si  0.4389    0.6595    0.0628 0
Si  Si  0.5285    0.2114    0.4317 0
Si  Si  0.5288    0.2447    0.3861 0
Si  Si  0.5288    0.3018    0.3859 0
Si  Si  0.5286    0.3352    0.4316 0
Si  Si  0.5285    0.3920    0.4316 0
Si  Si  0.7565    0.3416    0.3811 0
Si  Si  0.6597    0.3011    0.4375 0
Si  Si  0.6998    0.3412    0.3809 0
Si  Si  0.5622    0.3409    0.2436 0
Si  Si  0.6186    0.8811    0.6585 0
Si  Si  0.5286    0.8464    0.4317 0
Si  Si  0.5288    0.8807    0.3871 0
Si  Si  0.3412    0.8809    0.5616 0
Si  Si  0.4381    0.1535    0.7050 0
Si  Si  0.3809    0.2106    0.7047 0
Si  Si  0.3811    0.1535    0.7044 0
Si  Si  0.2962    0.0291    0.5619 0
Si  Si  0.2969    0.9720    0.6189 0
Si  Si  0.7493    0.0289    0.7090 0
Si  Si  0.7495    0.0290    0.6522 0
Si  Si  0.7057    0.2106    0.4377 0
 O   O  0.5448    0.6365    0.0549 0
 O   O  0.4430    0.3341    0.0911 0
 O   O  0.6670    0.3785    0.0910 0
 O   O  0.6056    0.4670    0.0913 0
 O   O  0.5375    0.2285    0.4093 0
 O   O  0.5335    0.2733    0.3927 0
 O   O  0.5374    0.3182    0.4090 0
 O   O  0.5325    0.3636    0.4237 0
 O   O  0.5319    0.8180    0.4235 0
 O   O  0.7615    0.3484    0.4096 0
 O   O  0.6234    0.3333    0.2721 0
 O   O  0.5910    0.3052    0.3490 0
 O   O  0.6668    0.2726    0.4426 0
 O   O  0.2357    0.6375    0.4551 0
 O   O  0.3097    0.6379    0.4550 0
 O   O  0.5379    0.8636    0.4095 0
 O   O  0.6517    0.4106    0.1247 0
 O   O  0.3640    0.8728    0.4553 0
 O   O  0.4095    0.1487    0.7117 0
 O   O  0.4428    0.1822    0.6984 0
 O   O  0.3763    0.1821    0.6977 0
 O   O  0.4093    0.2155    0.7120 0
 O   O  0.2897    0.0337    0.5906 0
 O   O  0.3726    0.2272    0.3184 0
 O   O  0.4464    0.2273    0.3175 0
 O   O  0.6816    0.9550    0.4468 0
 O   O  0.6806    0.9552    0.3728 0
 O   O  0.3181    0.1369    0.4464 0
 O   O  0.3196    0.1374    0.3729 0
 O   O  0.7422    0.0340    0.6806 0
 O   O  0.3560    0.0460    0.2278 0
 O   O  0.2822    0.0464    0.7713 0
 O   O  0.3648    0.9639    0.7264 0
 O   O  0.4547    0.2734    0.0362 0
 O   O  0.2281    0.7190    0.1358 0
 O   O  0.1482    0.6818    0.2571 0
 O   O  0.1365    0.6450    0.2268 0
 O   O  0.7142    0.2425    0.8185 0
 O   O  0.6517    0.5903    0.0576 0
 O   O  0.5905    0.4628    0.0458 0
Si  Si  0.9319    0.9722    0.4718 0
Si  Si  0.8420    0.8823    0.5628 0
Si  Si  0.8470    0.7504    0.2902 0
Si  Si  0.1129    0.9719    0.5628 0
Si  Si  0.9389    0.1595    0.5627 0
Si  Si  0.0285    0.7114    0.9317 0
Si  Si  0.0288    0.7446    0.8861 0
Si  Si  0.0288    0.8018    0.8859 0
Si  Si  0.0286    0.8352    0.9316 0
Si  Si  0.0285    0.8920    0.9316 0
Si  Si  0.2565    0.8416    0.8811 0
Si  Si  0.1597    0.8011    0.9375 0
Si  Si  0.1998    0.8412    0.8809 0
Si  Si  0.0622    0.8409    0.7436 0
Si  Si  0.1186    0.3811    0.1585 0
Si  Si  0.0286    0.3464    0.9317 0
Si  Si  0.0288    0.3807    0.8871 0
Si  Si  0.8412    0.3809    0.0616 0
Si  Si  0.9382    0.6535    0.2050 0
Si  Si  0.8809    0.7106    0.2047 0
Si  Si  0.8811    0.6535    0.2043 0
Si  Si  0.7962    0.5291    0.0619 0
Si  Si  0.7970    0.4720    0.1189 0
Si  Si  0.2493    0.5289    0.2090 0
Si  Si  0.2495    0.5291    0.1522 0
Si  Si  0.2057    0.7106    0.9377 0
 O   O  0.0448    0.1365    0.5549 0
 O   O  0.9430    0.8341    0.5911 0
 O   O  0.1670    0.8785    0.5910 0
 O   O  0.1056    0.9670    0.5913 0
 O   O  0.0375    0.7285    0.9093 0
 O   O  0.0335    0.7733    0.8927 0
 O   O  0.0374    0.8182    0.9090 0
 O   O  0.0325    0.8636    0.9237 0
 O   O  0.0319    0.3180    0.9235 0
 O   O  0.2615    0.8484    0.9096 0
 O   O  0.1234    0.8333    0.7721 0
 O   O  0.0910    0.8052    0.8490 0
 O   O  0.1668    0.7726    0.9426 0
 O   O  0.7357    0.1374    0.9551 0
 O   O  0.8096    0.1379    0.9549 0
 O   O  0.0378    0.3636    0.9095 0
 O   O  0.1517    0.9105    0.6247 0
 O   O  0.8640    0.3728    0.9553 0
 O   O  0.9096    0.6487    0.2116 0
 O   O  0.9428    0.6822    0.1984 0
 O   O  0.8763    0.6821    0.1977 0
 O   O  0.9093    0.7155    0.2120 0
 O   O  0.7897    0.5337    0.0906 0
 O   O  0.8726    0.7272    0.8184 0
 O   O  0.9464    0.7272    0.8175 0
 O   O  0.1816    0.4550    0.9468 0
 O   O  0.1806    0.4552    0.8728 0
 O   O  0.8181    0.6369    0.9464 0
 O   O  0.8196    0.6374    0.8729 0
 O   O  0.2422    0.5340    0.1806 0
 O   O  0.8560    0.5460    0.7278 0
 O   O  0.7822    0.5464    0.2713 0
 O   O  0.8648    0.4639    0.2264 0
 O   O  0.9547    0.7734    0.5362 0
 O   O  0.7281    0.2190    0.6358 0
 O   O  0.6482    0.1817    0.7571 0
 O   O  0.6364    0.1450    0.7268 0
 O   O  0.2142    0.7425    0.3185 0
 O   O  0.1517    0.0903    0.5576 0
 O   O  0.0905    0.9627    0.5458 0
Si  Si  0.4319    0.5289    0.0282 0
Si  Si  0.3419    0.6187    0.9372 0
Si  Si  0.3471    0.7507    0.2098 0
Si  Si  0.6128    0.5291    0.9371 0
Si  Si  0.4389    0.3416    0.9373 0
Si  Si  0.5285    0.7897    0.5683 0
Si  Si  0.5288    0.7564    0.6139 0
Si  Si  0.5288    0.6992    0.6141 0
Si  Si  0.5286    0.6659    0.5684 0
Si  Si  0.5285    0.6090    0.5684 0
Si  Si  0.7565    0.6595    0.6189 0
Si  Si  0.6597    0.7000    0.5625 0
Si  Si  0.6998    0.6599    0.6191 0
Si  Si  0.5622    0.6602    0.7564 0
Si  Si  0.6186    0.1200    0.3415 0
Si  Si  0.5285    0.1547    0.5683 0
Si  Si  0.5288    0.1204    0.6129 0
Si  Si  0.3411    0.1202    0.4384 0
Si  Si  0.4382    0.8476    0.2950 0
Si  Si  0.3809    0.7905    0.2953 0
Si  Si  0.3811    0.8476    0.2957 0
Si  Si  0.2962    0.9720    0.4381 0
Si  Si  0.2969    0.0291    0.3811 0
Si  Si  0.7493    0.9722    0.2910 0
Si  Si  0.7495    0.9720    0.3478 0
Si  Si  0.7057    0.7904    0.5623 0
 O   O  0.5448    0.3646    0.9451 0
 O   O  0.4430    0.6670    0.9089 0
 O   O  0.6670    0.6226    0.9090 0
 O   O  0.6056    0.5341    0.9087 0
 O   O  0.5375    0.7726    0.5907 0
 O   O  0.5335    0.7278    0.6073 0
 O   O  0.5374    0.6829    0.5910 0
 O   O  0.5325    0.6374    0.5763 0
 O   O  0.5319    0.1831    0.5765 0
 O   O  0.7615    0.6527    0.5904 0
 O   O  0.6234    0.6678    0.7279 0
 O   O  0.5910    0.6958    0.6510 0
 O   O  0.6668    0.7285    0.5574 0
 O   O  0.2357    0.3637    0.5449 0
 O   O  0.3097    0.3632    0.5450 0
 O   O  0.5378    0.1375    0.5905 0
 O   O  0.6517    0.5905    0.8753 0
 O   O  0.3640    0.1283    0.5447 0
 O   O  0.4096    0.8524    0.2883 0
 O   O  0.4429    0.8189    0.3016 0
 O   O  0.3763    0.8190    0.3023 0
 O   O  0.4093    0.7856    0.2880 0
 O   O  0.2897    0.9674    0.4094 0
 O   O  0.3726    0.7739    0.6816 0
 O   O  0.4464    0.7738    0.6825 0
 O   O  0.6816    0.0460    0.5531 0
 O   O  0.6806    0.0459    0.6272 0
 O   O  0.3181    0.8641    0.5536 0
 O   O  0.3196    0.8637    0.6271 0
 O   O  0.7422    0.9671    0.3194 0
 O   O  0.3559    0.9551    0.7722 0
 O   O  0.2822    0.9547    0.2287 0
 O   O  0.3648    0.0372    0.2736 0
 O   O  0.4547    0.7277    0.9638 0
 O   O  0.2281    0.2821    0.8642 0
 O   O  0.1482    0.3193    0.7429 0
 O   O  0.1364    0.3561    0.7732 0
 O   O  0.7143    0.7586    0.1815 0
 O   O  0.6517    0.4108    0.9424 0
 O   O  0.5905    0.5383    0.9542 0
Si  Si  0.9319    0.0289    0.5282 0
Si  Si  0.8420    0.1187    0.4372 0
Si  Si  0.8470    0.2507    0.7098 0
Si  Si  0.1128    0.0291    0.4371 0
Si  Si  0.9389    0.8416    0.4372 0
Si  Si  0.0286    0.2898    0.0683 0
Si  Si  0.0288    0.2564    0.1139 0
Si  Si  0.0288    0.1993    0.1141 0
Si  Si  0.0286    0.1659    0.0683 0
Si  Si  0.0285    0.1091    0.0684 0
Si  Si  0.2565    0.1595    0.1189 0
Si  Si  0.1597    0.2000    0.0625 0
Si  Si  0.1998    0.1599    0.1191 0
Si  Si  0.0622    0.1602    0.2564 0
Si  Si  0.1186    0.6200    0.8415 0
Si  Si  0.0286    0.6547    0.0683 0
Si  Si  0.0288    0.6204    0.1129 0
Si  Si  0.8411    0.6202    0.9385 0
Si  Si  0.9382    0.3476    0.7950 0
Si  Si  0.8809    0.2905    0.7953 0
Si  Si  0.8811    0.3476    0.7956 0
Si  Si  0.7962    0.4720    0.9381 0
Si  Si  0.7969    0.5291    0.8811 0
Si  Si  0.2493    0.4722    0.7910 0
Si  Si  0.2495    0.4720    0.8478 0
Si  Si  0.2057    0.2904    0.0623 0
 O   O  0.0448    0.8646    0.4451 0
 O   O  0.9430    0.1670    0.4089 0
 O   O  0.1670    0.1226    0.4090 0
 O   O  0.1056    0.0341    0.4087 0
 O   O  0.0375    0.2726    0.0907 0
 O   O  0.0335    0.2278    0.1073 0
 O   O  0.0374    0.1829    0.0910 0
 O   O  0.0325    0.1375    0.0763 0
 O   O  0.0319    0.6831    0.0765 0
 O   O  0.2615    0.1527    0.0904 0
 O   O  0.1234    0.1678    0.2279 0
 O   O  0.0911    0.1959    0.1510 0
 O   O  0.1668    0.2285    0.0574 0
 O   O  0.7357    0.8637    0.0449 0
 O   O  0.8097    0.8632    0.0450 0
 O   O  0.0378    0.6375    0.0905 0
 O   O  0.1517    0.0905    0.3753 0
 O   O  0.8640    0.6283    0.0447 0
 O   O  0.9095    0.3524    0.7883 0
 O   O  0.9428    0.3189    0.8016 0
 O   O  0.8763    0.3190    0.8023 0
 O   O  0.9093    0.2856    0.7880 0
 O   O  0.7897    0.4673    0.9094 0
 O   O  0.8727    0.2739    0.1816 0
 O   O  0.9465    0.2738    0.1825 0
 O   O  0.1817    0.5461    0.0532 0
 O   O  0.1806    0.5459    0.1272 0
 O   O  0.8182    0.3641    0.0536 0
 O   O  0.8196    0.3637    0.1271 0
 O   O  0.2422    0.4671    0.8194 0
 O   O  0.8560    0.4551    0.2722 0
 O   O  0.7822    0.4547    0.7287 0
 O   O  0.8648    0.5372    0.7736 0
 O   O  0.9547    0.2277    0.4638 0
 O   O  0.7281    0.7821    0.3642 0
 O   O  0.6482    0.8194    0.2429 0
 O   O  0.6365    0.8561    0.2731 0
 O   O  0.2142    0.2586    0.6815 0
 O   O  0.1517    0.9108    0.4424 0
 O   O  0.0904    0.0383    0.4541 0
Si  Si  0.9720    0.5689    0.5283 0
Si  Si  0.0630    0.6588    0.6182 0
Si  Si  0.7905    0.6537    0.7502 0
Si  Si  0.0631    0.3879    0.5285 0
Si  Si  0.0630    0.5618    0.3410 0
Si  Si  0.4319    0.4722    0.7892 0
Si  Si  0.3864    0.4720    0.7559 0
Si  Si  0.3861    0.4719    0.6987 0
Si  Si  0.4318    0.4722    0.6653 0
Si  Si  0.4318    0.4722    0.6085 0
Si  Si  0.3813    0.2443    0.6590 0
Si  Si  0.4377    0.3410    0.6995 0
Si  Si  0.3811    0.3010    0.6593 0
Si  Si  0.2438    0.4386    0.6596 0
Si  Si  0.6588    0.3821    0.1194 0
Si  Si  0.4319    0.4722    0.1542 0
Si  Si  0.3874    0.4720    0.1198 0
Si  Si  0.5618    0.6597    0.1196 0
Si  Si  0.7052    0.5626    0.8470 0
Si  Si  0.7049    0.6199    0.7900 0
Si  Si  0.7046    0.6197    0.8471 0
Si  Si  0.5622    0.7046    0.9715 0
Si  Si  0.6192    0.7038    0.0285 0
Si  Si  0.7093    0.2515    0.9717 0
Si  Si  0.6524    0.2512    0.9715 0
Si  Si  0.4379    0.2951    0.7899 0
 O   O  0.0551    0.4560    0.3640 0
 O   O  0.0913    0.5577    0.6664 0
 O   O  0.0912    0.3339    0.6220 0
 O   O  0.0915    0.3952    0.5335 0
 O   O  0.4095    0.4632    0.7720 0
 O   O  0.3930    0.4672    0.7272 0
 O   O  0.4093    0.4633    0.6823 0
 O   O  0.4238    0.4682    0.6369 0
 O   O  0.4236    0.4688    0.1825 0
 O   O  0.4099    0.2392    0.6522 0
 O   O  0.2723    0.3773    0.6673 0
 O   O  0.3491    0.4098    0.6953 0
 O   O  0.4428    0.3339    0.7279 0
 O   O  0.4554    0.7651    0.3631 0
 O   O  0.4552    0.6911    0.3627 0
 O   O  0.4097    0.4629    0.1369 0
 O   O  0.1249    0.3491    0.5900 0
 O   O  0.4556    0.6368    0.1277 0
 O   O  0.7118    0.5912    0.8518 0
 O   O  0.6986    0.5579    0.8184 0
 O   O  0.6978    0.6245    0.8185 0
 O   O  0.7122    0.5915    0.7851 0
 O   O  0.5908    0.7110    0.9669 0
 O   O  0.3186    0.6282    0.7733 0
 O   O  0.3177    0.5543    0.7733 0
 O   O  0.4471    0.3191    0.0455 0
 O   O  0.3731    0.3202    0.0453 0
 O   O  0.4466    0.6826    0.8636 0
 O   O  0.3731    0.6812    0.8631 0
 O   O  0.6809    0.2586    0.9666 0
 O   O  0.2280    0.6448    0.9546 0
 O   O  0.7716    0.7186    0.9542 0
 O   O  0.7267    0.6360    0.0366 0
 O   O  0.0364    0.5460    0.7272 0
 O   O  0.1361    0.7727    0.2816 0
 O   O  0.2574    0.8526    0.3188 0
 O   O  0.2271    0.8643    0.3555 0
 O   O  0.8187    0.2865    0.7581 0
 O   O  0.0578    0.3492    0.4102 0
 O   O  0.0461    0.4104    0.5377 0
Si  Si  0.4720    0.0689    0.0283 0
Si  Si  0.5631    0.1588    0.1182 0
Si  Si  0.2905    0.1537    0.2502 0
Si  Si  0.5631    0.8879    0.0286 0
Si  Si  0.5630    0.0618    0.8410 0
Si  Si  0.9319    0.9722    0.2892 0
Si  Si  0.8864    0.9720    0.2558 0
Si  Si  0.8862    0.9719    0.1987 0
Si  Si  0.9319    0.9722    0.1653 0
Si  Si  0.9318    0.9722    0.1085 0
Si  Si  0.8814    0.7443    0.1590 0
Si  Si  0.9377    0.8411    0.1995 0
Si  Si  0.8811    0.8010    0.1593 0
Si  Si  0.7438    0.9386    0.1596 0
Si  Si  0.1588    0.8821    0.6194 0
Si  Si  0.9319    0.9722    0.6542 0
Si  Si  0.8874    0.9719    0.6198 0
Si  Si  0.0618    0.1596    0.6196 0
Si  Si  0.2052    0.0626    0.3470 0
Si  Si  0.2049    0.1199    0.2899 0
Si  Si  0.2046    0.1197    0.3470 0
Si  Si  0.0622    0.2046    0.4715 0
Si  Si  0.1191    0.2038    0.5285 0
Si  Si  0.2093    0.7514    0.4717 0
Si  Si  0.1525    0.7512    0.4715 0
Si  Si  0.9379    0.7951    0.2899 0
 O   O  0.5551    0.9560    0.8641 0
 O   O  0.5913    0.0578    0.1664 0
 O   O  0.5913    0.8338    0.1220 0
 O   O  0.5915    0.8952    0.0335 0
 O   O  0.9095    0.9632    0.2720 0
 O   O  0.8930    0.9672    0.2272 0
 O   O  0.9093    0.9633    0.1823 0
 O   O  0.9239    0.9683    0.1369 0
 O   O  0.9236    0.9688    0.6825 0
 O   O  0.9099    0.7392    0.1522 0
 O   O  0.7723    0.8773    0.1673 0
 O   O  0.8491    0.9098    0.1953 0
 O   O  0.9428    0.8339    0.2279 0
 O   O  0.9553    0.2651    0.8631 0
 O   O  0.9552    0.1911    0.8627 0
 O   O  0.9097    0.9629    0.6370 0
 O   O  0.6250    0.8491    0.0900 0
 O   O  0.9556    0.1367    0.6277 0
 O   O  0.2118    0.0912    0.3518 0
 O   O  0.1986    0.0579    0.3184 0
 O   O  0.1978    0.1245    0.3185 0
 O   O  0.2122    0.0915    0.2851 0
 O   O  0.0908    0.2111    0.4669 0
 O   O  0.8186    0.1282    0.2734 0
 O   O  0.8178    0.0543    0.2732 0
 O   O  0.9471    0.8191    0.5455 0
 O   O  0.8731    0.8202    0.5454 0
 O   O  0.9466    0.1826    0.3636 0
 O   O  0.8731    0.1812    0.3631 0
 O   O  0.1809    0.7586    0.4666 0
 O   O  0.7280    0.1448    0.4546 0
 O   O  0.2716    0.2186    0.4541 0
 O   O  0.2266    0.1360    0.5365 0
 O   O  0.5364    0.0460    0.2271 0
 O   O  0.6360    0.2727    0.7816 0
 O   O  0.7574    0.3526    0.8188 0
 O   O  0.7271    0.3643    0.8555 0
 O   O  0.3187    0.7865    0.2581 0
 O   O  0.5578    0.8492    0.9102 0
 O   O  0.5461    0.9104    0.0377 0
Si  Si  0.0284    0.5689    0.4717 0
Si  Si  0.9374    0.6588    0.3818 0
Si  Si  0.2100    0.6537    0.2498 0
Si  Si  0.9374    0.3879    0.4714 0
Si  Si  0.9375    0.5618    0.6590 0
Si  Si  0.5686    0.4722    0.2108 0
Si  Si  0.6141    0.4720    0.2442 0
Si  Si  0.6143    0.4719    0.3013 0
Si  Si  0.5686    0.4722    0.3347 0
Si  Si  0.5687    0.4722    0.3915 0
Si  Si  0.6191    0.2443    0.3410 0
Si  Si  0.5628    0.3410    0.3005 0
Si  Si  0.6193    0.3010    0.3407 0
Si  Si  0.7567    0.4386    0.3403 0
Si  Si  0.3417    0.3821    0.8806 0
Si  Si  0.5685    0.4722    0.8458 0
Si  Si  0.6131    0.4719    0.8802 0
Si  Si  0.4387    0.6596    0.8804 0
Si  Si  0.2953    0.5626    0.1530 0
Si  Si  0.2956    0.6199    0.2100 0
Si  Si  0.2959    0.6197    0.1530 0
Si  Si  0.4383    0.7046    0.0285 0
Si  Si  0.3813    0.7038    0.9715 0
Si  Si  0.2912    0.2515    0.0283 0
Si  Si  0.3480    0.2512    0.0285 0
Si  Si  0.5625    0.2951    0.2101 0
 O   O  0.9453    0.4560    0.6359 0
 O   O  0.9092    0.5577    0.3336 0
 O   O  0.9092    0.3338    0.3780 0
 O   O  0.9089    0.3952    0.4665 0
 O   O  0.5909    0.4632    0.2280 0
 O   O  0.6075    0.4672    0.2727 0
 O   O  0.5912    0.4633    0.3177 0
 O   O  0.5766    0.4682    0.3631 0
 O   O  0.5768    0.4688    0.8174 0
 O   O  0.5906    0.2392    0.3478 0
 O   O  0.7282    0.3773    0.3327 0
 O   O  0.6513    0.4097    0.3046 0
 O   O  0.5577    0.3339    0.2721 0
 O   O  0.5451    0.7651    0.6369 0
 O   O  0.5453    0.6911    0.6373 0
 O   O  0.5907    0.4628    0.8631 0
 O   O  0.8755    0.3491    0.4100 0
 O   O  0.5449    0.6367    0.8723 0
 O   O  0.2886    0.5912    0.1482 0
 O   O  0.3019    0.5579    0.1816 0
 O   O  0.3026    0.6246    0.1815 0
 O   O  0.2883    0.5915    0.2149 0
 O   O  0.4097    0.7111    0.0331 0
 O   O  0.6818    0.6282    0.2266 0
 O   O  0.6827    0.5543    0.2267 0
 O   O  0.5534    0.3192    0.9545 0
 O   O  0.6274    0.3202    0.9546 0
 O   O  0.5539    0.6826    0.1364 0
 O   O  0.6274    0.6812    0.1369 0
 O   O  0.3196    0.2586    0.0334 0
 O   O  0.7725    0.6448    0.0454 0
 O   O  0.2289    0.7187    0.0458 0
 O   O  0.2738    0.6360    0.9634 0
 O   O  0.9640    0.5460    0.2728 0
 O   O  0.8644    0.7727    0.7184 0
 O   O  0.7431    0.8526    0.6812 0
 O   O  0.7734    0.8643    0.6445 0
 O   O  0.1818    0.2865    0.2419 0
 O   O  0.9427    0.3492    0.5898 0
 O   O  0.9544    0.4104    0.4623 0
Si  Si  0.5284    0.0689    0.9716 0
Si  Si  0.4374    0.1588    0.8818 0
Si  Si  0.7100    0.1537    0.7498 0
Si  Si  0.4374    0.8879    0.9714 0
Si  Si  0.4375    0.0619    0.1590 0
Si  Si  0.0686    0.9722    0.7108 0
Si  Si  0.1141    0.9720    0.7441 0
Si  Si  0.1143    0.9719    0.8013 0
Si  Si  0.0686    0.9722    0.8347 0
Si  Si  0.0687    0.9722    0.8915 0
Si  Si  0.1191    0.7442    0.8410 0
Si  Si  0.0628    0.8410    0.8005 0
Si  Si  0.1193    0.8010    0.8407 0
Si  Si  0.2567    0.9386    0.8404 0
Si  Si  0.8417    0.8822    0.3806 0
Si  Si  0.0685    0.9722    0.3458 0
Si  Si  0.1131    0.9719    0.3802 0
Si  Si  0.9387    0.1596    0.3804 0
Si  Si  0.7953    0.0626    0.6530 0
Si  Si  0.7956    0.1199    0.7101 0
Si  Si  0.7959    0.1197    0.6530 0
Si  Si  0.9383    0.2046    0.5285 0
Si  Si  0.8813    0.2038    0.4715 0
Si  Si  0.7912    0.7514    0.5283 0
Si  Si  0.8480    0.7512    0.5285 0
Si  Si  0.0625    0.7951    0.7101 0
 O   O  0.4454    0.9560    0.1359 0
 O   O  0.4091    0.0578    0.8336 0
 O   O  0.4092    0.8338    0.8780 0
 O   O  0.4089    0.8952    0.9665 0
 O   O  0.0909    0.9632    0.7279 0
 O   O  0.1075    0.9672    0.7727 0
 O   O  0.0912    0.9633    0.8177 0
 O   O  0.0766    0.9682    0.8631 0
 O   O  0.0769    0.9688    0.3175 0
 O   O  0.0906    0.7392    0.8478 0
 O   O  0.2282    0.8773    0.8327 0
 O   O  0.1513    0.9097    0.8046 0
 O   O  0.0576    0.8339    0.7721 0
 O   O  0.0451    0.2651    0.1369 0
 O   O  0.0453    0.1911    0.1373 0
 O   O  0.0907    0.9629    0.3630 0
 O   O  0.3755    0.8491    0.9100 0
 O   O  0.0449    0.1367    0.3723 0
 O   O  0.7886    0.0912    0.6482 0
 O   O  0.8019    0.0579    0.6816 0
 O   O  0.8026    0.1245    0.6815 0
 O   O  0.7883    0.0915    0.7148 0
 O   O  0.9096    0.2111    0.5331 0
 O   O  0.1818    0.1282    0.7266 0
 O   O  0.1827    0.0543    0.7267 0
 O   O  0.0534    0.8191    0.4545 0
 O   O  0.1274    0.8202    0.4546 0
 O   O  0.0539    0.1826    0.6364 0
 O   O  0.1273    0.1812    0.6369 0
 O   O  0.8196    0.7586    0.5334 0
 O   O  0.2725    0.1448    0.5454 0
 O   O  0.7289    0.2187    0.5458 0
 O   O  0.7738    0.1360    0.4634 0
 O   O  0.4640    0.0460    0.7728 0
 O   O  0.3644    0.2727    0.2184 0
 O   O  0.2431    0.3526    0.1812 0
 O   O  0.2734    0.3643    0.1445 0
 O   O  0.6818    0.7865    0.7420 0
 O   O  0.4427    0.8492    0.0898 0
 O   O  0.4544    0.9103    0.9623 0
Si  Si  0.9720    0.4322    0.4717 0
Si  Si  0.0631    0.3423    0.3818 0
Si  Si  0.7905    0.3474    0.2498 0
Si  Si  0.0631    0.6132    0.4714 0
Si  Si  0.0630    0.4392    0.6590 0
Si  Si  0.4319    0.5289    0.2108 0
Si  Si  0.3864    0.5291    0.2442 0
Si  Si  0.3862    0.5292    0.3013 0
Si  Si  0.4318    0.5289    0.3347 0
Si  Si  0.4318    0.5289    0.3915 0
Si  Si  0.3814    0.7568    0.3410 0
Si  Si  0.4377    0.6601    0.3005 0
Si  Si  0.3811    0.7001    0.3407 0
Si  Si  0.2438    0.5625    0.3403 0
Si  Si  0.6588    0.6189    0.8806 0
Si  Si  0.4319    0.5289    0.8458 0
Si  Si  0.3874    0.5291    0.8802 0
Si  Si  0.5618    0.3414    0.8804 0
Si  Si  0.7052    0.4385    0.1530 0
Si  Si  0.7049    0.3812    0.2100 0
Si  Si  0.7046    0.3814    0.1530 0
Si  Si  0.5622    0.2965    0.0285 0
Si  Si  0.6191    0.2973    0.9715 0
Si  Si  0.7093    0.7496    0.0283 0
Si  Si  0.6525    0.7499    0.0285 0
Si  Si  0.4380    0.7060    0.2101 0
 O   O  0.0551    0.5451    0.6359 0
 O   O  0.0913    0.4433    0.3336 0
 O   O  0.0912    0.6673    0.3780 0
 O   O  0.0915    0.6059    0.4665 0
 O   O  0.4096    0.5379    0.2280 0
 O   O  0.3930    0.5339    0.2727 0
 O   O  0.4093    0.5378    0.3177 0
 O   O  0.4239    0.5329    0.3631 0
 O   O  0.4236    0.5323    0.8174 0
 O   O  0.4099    0.7619    0.3478 0
 O   O  0.2723    0.6238    0.3327 0
 O   O  0.3491    0.5914    0.3046 0
 O   O  0.4428    0.6672    0.2721 0
 O   O  0.4553    0.2360    0.6369 0
 O   O  0.4552    0.3100    0.6373 0
 O   O  0.4097    0.5382    0.8631 0
 O   O  0.1249    0.6520    0.4100 0
 O   O  0.4556    0.3643    0.8723 0
 O   O  0.7118    0.4099    0.1482 0
 O   O  0.6986    0.4432    0.1816 0
 O   O  0.6978    0.3766    0.1815 0
 O   O  0.7122    0.4096    0.2149 0
 O   O  0.5908    0.2900    0.0331 0
 O   O  0.3186    0.3729    0.2266 0
 O   O  0.3178    0.4468    0.2267 0
 O   O  0.4471    0.6819    0.9545 0
 O   O  0.3731    0.6809    0.9547 0
 O   O  0.4466    0.3185    0.1364 0
 O   O  0.3731    0.3199    0.1369 0
 O   O  0.6809    0.7425    0.0334 0
 O   O  0.2280    0.3563    0.0454 0
 O   O  0.7716    0.2824    0.0458 0
 O   O  0.7267    0.3651    0.9634 0
 O   O  0.0365    0.4551    0.2728 0
 O   O  0.1360    0.2284    0.7184 0
 O   O  0.2574    0.1485    0.6812 0
 O   O  0.2271    0.1368    0.6445 0
 O   O  0.8187    0.7146    0.2419 0
 O   O  0.0578    0.6519    0.5898 0
 O   O  0.0461    0.5907    0.4623 0
Si  Si  0.4720    0.9322    0.9717 0
Si  Si  0.5631    0.8423    0.8818 0
Si  Si  0.2905    0.8474    0.7498 0
Si  Si  0.5631    0.1132    0.9714 0
Si  Si  0.5630    0.9393    0.1590 0
Si  Si  0.9319    0.0289    0.7108 0
Si  Si  0.8864    0.0291    0.7441 0
Si  Si  0.8861    0.0292    0.8013 0
Si  Si  0.9318    0.0289    0.8347 0
Si  Si  0.9318    0.0289    0.8915 0
Si  Si  0.8813    0.2568    0.8410 0
Si  Si  0.9377    0.1601    0.8005 0
Si  Si  0.8811    0.2001    0.8407 0
Si  Si  0.7438    0.0625    0.8404 0
Si  Si  0.1588    0.1190    0.3806 0
Si  Si  0.9319    0.0289    0.3458 0
Si  Si  0.8874    0.0291    0.3802 0
Si  Si  0.0618    0.8415    0.3804 0
Si  Si  0.2052    0.9385    0.6530 0
Si  Si  0.2049    0.8812    0.7101 0
Si  Si  0.2046    0.8814    0.6530 0
Si  Si  0.0622    0.7965    0.5285 0
Si  Si  0.1192    0.7973    0.4715 0
Si  Si  0.2093    0.2496    0.5283 0
Si  Si  0.1525    0.2499    0.5285 0
Si  Si  0.9379    0.2060    0.7101 0
 O   O  0.5551    0.0451    0.1359 0
 O   O  0.5913    0.9433    0.8336 0
 O   O  0.5912    0.1673    0.8780 0
 O   O  0.5915    0.1059    0.9665 0
 O   O  0.9095    0.0379    0.7280 0
 O   O  0.8930    0.0339    0.7727 0
 O   O  0.9093    0.0378    0.8177 0
 O   O  0.9238    0.0328    0.8631 0
 O   O  0.9236    0.0323    0.3174 0
 O   O  0.9099    0.2619    0.8478 0
 O   O  0.7723    0.1238    0.8327 0
 O   O  0.8491    0.0913    0.8046 0
 O   O  0.9428    0.1672    0.7721 0
 O   O  0.9554    0.7360    0.1369 0
 O   O  0.9552    0.8100    0.1373 0
 O   O  0.9097    0.0382    0.3630 0
 O   O  0.6249    0.1519    0.9100 0
 O   O  0.9556    0.8644    0.3723 0
 O   O  0.2118    0.9099    0.6482 0
 O   O  0.1986    0.9432    0.6816 0
 O   O  0.1978    0.8766    0.6815 0
 O   O  0.2122    0.9096    0.7149 0
 O   O  0.0908    0.7900    0.5331 0
 O   O  0.8186    0.8729    0.7266 0
 O   O  0.8178    0.9468    0.7268 0
 O   O  0.9471    0.1820    0.4545 0
 O   O  0.8731    0.1809    0.4546 0
 O   O  0.9466    0.8185    0.6364 0
 O   O  0.8731    0.8199    0.6369 0
 O   O  0.1809    0.2425    0.5334 0
 O   O  0.7280    0.8563    0.5454 0
 O   O  0.2716    0.7824    0.5458 0
 O   O  0.2267    0.8651    0.4634 0
 O   O  0.5364    0.9551    0.7728 0
 O   O  0.6360    0.7284    0.2184 0
 O   O  0.7574    0.6485    0.1812 0
 O   O  0.7271    0.6368    0.1445 0
 O   O  0.3187    0.2146    0.7419 0
 O   O  0.5578    0.1519    0.0898 0
 O   O  0.5461    0.0907    0.9623 0
Si  Si  0.0284    0.4322    0.5283 0
Si  Si  0.9374    0.3423    0.6182 0
Si  Si  0.2100    0.3474    0.7501 0
Si  Si  0.9374    0.6132    0.5285 0
Si  Si  0.9375    0.4392    0.3410 0
Si  Si  0.5686    0.5289    0.7892 0
Si  Si  0.6141    0.5291    0.7559 0
Si  Si  0.6143    0.5292    0.6987 0
Si  Si  0.5686    0.5289    0.6653 0
Si  Si  0.5687    0.5289    0.6085 0
Si  Si  0.6191    0.7568    0.6590 0
Si  Si  0.5628    0.6600    0.6995 0
Si  Si  0.6193    0.7001    0.6593 0
Si  Si  0.7567    0.5625    0.6596 0
Si  Si  0.3417    0.6190    0.1194 0
Si  Si  0.5685    0.5289    0.1542 0
Si  Si  0.6131    0.5291    0.1198 0
Si  Si  0.4387    0.3414    0.1196 0
Si  Si  0.2953    0.4385    0.8470 0
Si  Si  0.2956    0.3812    0.7899 0
Si  Si  0.2959    0.3814    0.8470 0
Si  Si  0.4383    0.2965    0.9715 0
Si  Si  0.3813    0.2973    0.0285 0
Si  Si  0.2912    0.7496    0.9717 0
Si  Si  0.3480    0.7498    0.9715 0
Si  Si  0.5625    0.7060    0.7899 0
 O   O  0.9453    0.5451    0.3641 0
 O   O  0.9091    0.4433    0.6664 0
 O   O  0.9092    0.6673    0.6220 0
 O   O  0.9089    0.6059    0.5335 0
 O   O  0.5909    0.5379    0.7720 0
 O   O  0.6075    0.5339    0.7272 0
 O   O  0.5912    0.5377    0.6823 0
 O   O  0.5766    0.5329    0.6369 0
 O   O  0.5768    0.5323    0.1826 0
 O   O  0.5906    0.7619    0.6522 0
 O   O  0.7282    0.6238    0.6673 0
 O   O  0.6513    0.5913    0.6954 0
 O   O  0.5577    0.6672    0.7279 0
 O   O  0.5451    0.2360    0.3631 0
 O   O  0.5453    0.3100    0.3627 0
 O   O  0.5907    0.5382    0.1370 0
 O   O  0.8755    0.6519    0.5900 0
 O   O  0.5449    0.3644    0.1277 0
 O   O  0.2886    0.4099    0.8518 0
 O   O  0.3019    0.4432    0.8184 0
 O   O  0.3026    0.3765    0.8185 0
 O   O  0.2883    0.4096    0.7851 0
 O   O  0.4096    0.2900    0.9669 0
 O   O  0.6818    0.3729    0.7733 0
 O   O  0.6827    0.4468    0.7733 0
 O   O  0.5534    0.6820    0.0455 0
 O   O  0.6274    0.6809    0.0454 0
 O   O  0.5539    0.3184    0.8636 0
 O   O  0.6273    0.3199    0.8631 0
 O   O  0.3196    0.7425    0.9666 0
 O   O  0.7725    0.3563    0.9546 0
 O   O  0.2289    0.2824    0.9542 0
 O   O  0.2738    0.3651    0.0365 0
 O   O  0.9640    0.4551    0.7272 0
 O   O  0.8644    0.2284    0.2816 0
 O   O  0.7431    0.1485    0.3188 0
 O   O  0.7734    0.1368    0.3555 0
 O   O  0.1817    0.7146    0.7581 0
 O   O  0.9427    0.6519    0.4102 0
 O   O  0.9544    0.5907    0.5377 0
Si  Si  0.5285    0.9322    0.0283 0
Si  Si  0.4374    0.8423    0.1182 0
Si  Si  0.7100    0.8474    0.2502 0
Si  Si  0.4374    0.1132    0.0286 0
Si  Si  0.4375    0.9392    0.8410 0
Si  Si  0.0686    0.0289    0.2892 0
Si  Si  0.1141    0.0291    0.2558 0
Si  Si  0.1143    0.0292    0.1987 0
Si  Si  0.0686    0.0289    0.1653 0
Si  Si  0.0687    0.0289    0.1085 0
Si  Si  0.1191    0.2568    0.1590 0
Si  Si  0.0628    0.1600    0.1995 0
Si  Si  0.1193    0.2001    0.1593 0
Si  Si  0.2567    0.0625    0.1596 0
Si  Si  0.8417    0.1190    0.6194 0
Si  Si  0.0685    0.0289    0.6542 0
Si  Si  0.1131    0.0291    0.6198 0
Si  Si  0.9387    0.8414    0.6196 0
Si  Si  0.7953    0.9385    0.3470 0
Si  Si  0.7956    0.8812    0.2899 0
Si  Si  0.7959    0.8814    0.3470 0
Si  Si  0.9383    0.7965    0.4715 0
Si  Si  0.8813    0.7973    0.5285 0
Si  Si  0.7912    0.2496    0.4717 0
Si  Si  0.8480    0.2498    0.4715 0
Si  Si  0.0625    0.2060    0.2899 0
 O   O  0.4453    0.0451    0.8641 0
 O   O  0.4092    0.9434    0.1664 0
 O   O  0.4092    0.1673    0.1220 0
 O   O  0.4089    0.1059    0.0335 0
 O   O  0.0909    0.0379    0.2720 0
 O   O  0.1075    0.0339    0.2273 0
 O   O  0.0912    0.0378    0.1823 0
 O   O  0.0766    0.0329    0.1369 0
 O   O  0.0768    0.0322    0.6825 0
 O   O  0.0906    0.2619    0.1522 0
 O   O  0.2282    0.1238    0.1673 0
 O   O  0.1513    0.0914    0.1953 0
 O   O  0.0577    0.1672    0.2279 0
 O   O  0.0451    0.7359    0.8631 0
 O   O  0.0452    0.8100    0.8627 0
 O   O  0.0907    0.0382    0.6370 0
 O   O  0.3755    0.1520    0.0900 0
 O   O  0.0449    0.8643    0.6277 0
 O   O  0.7886    0.9099    0.3518 0
 O   O  0.8019    0.9432    0.3184 0
 O   O  0.8026    0.8766    0.3185 0
 O   O  0.7883    0.9096    0.2851 0
 O   O  0.9096    0.7900    0.4669 0
 O   O  0.1819    0.8729    0.2734 0
 O   O  0.1827    0.9468    0.2732 0
 O   O  0.0534    0.1820    0.5455 0
 O   O  0.1274    0.1809    0.5454 0
 O   O  0.0539    0.8185    0.3636 0
 O   O  0.1274    0.8199    0.3631 0
 O   O  0.8196    0.2425    0.4666 0
 O   O  0.2725    0.8563    0.4546 0
 O   O  0.7289    0.7824    0.4542 0
 O   O  0.7738    0.8651    0.5365 0
 O   O  0.4640    0.9551    0.2272 0
 O   O  0.3644    0.7284    0.7816 0
 O   O  0.2431    0.6485    0.8188 0
 O   O  0.2734    0.6368    0.8555 0
 O   O  0.6818    0.2146    0.2581 0
 O   O  0.4426    0.1519    0.9102 0
 O   O  0.4544    0.0907    0.0377 0
Si  Si  0.9719    0.5288    0.4318 0
Si  Si  0.0630    0.6187    0.3419 0
Si  Si  0.7905    0.7508    0.3469 0
Si  Si  0.0632    0.5292    0.6124 0
Si  Si  0.0629    0.3417    0.4385 0
Si  Si  0.4321    0.7896    0.5282 0
Si  Si  0.3865    0.7563    0.5286 0
Si  Si  0.3860    0.6992    0.5285 0
Si  Si  0.4318    0.6658    0.5284 0
Si  Si  0.4319    0.6089    0.5282 0
Si  Si  0.3813    0.6596    0.7562 0
Si  Si  0.4378    0.7001    0.6596 0
Si  Si  0.3812    0.6597    0.6995 0
Si  Si  0.2437    0.6600    0.5620 0
Si  Si  0.6586    0.1201    0.6183 0
Si  Si  0.4321    0.1546    0.5282 0
Si  Si  0.3875    0.1203    0.5287 0
Si  Si  0.5619    0.1203    0.3410 0
Si  Si  0.7053    0.8477    0.4378 0
Si  Si  0.7050    0.7904    0.3807 0
Si  Si  0.7044    0.8476    0.3808 0
Si  Si  0.5621    0.9721    0.2961 0
Si  Si  0.6192    0.0290    0.2968 0
Si  Si  0.7094    0.9723    0.7492 0
Si  Si  0.6525    0.9719    0.7492 0
Si  Si  0.4380    0.7905    0.7054 0
 O   O  0.0551    0.3643    0.5442 0
 O   O  0.0915    0.6670    0.4427 0
 O   O  0.0914    0.6226    0.6667 0
 O   O  0.0917    0.5341    0.6054 0
 O   O  0.4098    0.7723    0.5373 0
 O   O  0.3930    0.7277    0.5333 0
 O   O  0.4091    0.6827    0.5371 0
 O   O  0.4240    0.6373    0.5323 0
 O   O  0.4237    0.1829    0.5316 0
 O   O  0.4097    0.6527    0.7613 0
 O   O  0.2724    0.6678    0.6232 0
 O   O  0.3492    0.6959    0.5907 0
 O   O  0.4428    0.7286    0.6666 0
 O   O  0.4551    0.3639    0.2355 0
 O   O  0.4554    0.3630    0.3094 0
 O   O  0.4101    0.1372    0.5376 0
 O   O  0.1249    0.5904    0.6514 0
 O   O  0.4559    0.1283    0.3635 0
 O   O  0.7119    0.8524    0.4092 0
 O   O  0.6986    0.8191    0.4426 0
 O   O  0.6979    0.8189    0.3760 0
 O   O  0.7122    0.7857    0.4092 0
 O   O  0.5907    0.9674    0.2895 0
 O   O  0.3189    0.7741    0.3724 0
 O   O  0.3175    0.7736    0.4462 0
 O   O  0.4471    0.0464    0.6818 0
 O   O  0.3731    0.0457    0.6801 0
 O   O  0.4466    0.8639    0.3182 0
 O   O  0.3731    0.8639    0.3190 0
 O   O  0.6810    0.9671    0.7420 0
 O   O  0.2283    0.9549    0.3557 0
 O   O  0.7713    0.9545    0.2819 0
 O   O  0.7263    0.0372    0.3643 0
 O   O  0.0364    0.7281    0.4542 0
 O   O  0.1362    0.2821    0.2276 0
 O   O  0.2573    0.3192    0.1480 0
 O   O  0.2273    0.3561    0.1360 0
 O   O  0.8188    0.7586    0.7140 0
 O   O  0.0578    0.4109    0.6514 0
 O   O  0.0464    0.5383    0.5898 0
Si  Si  0.4719    0.0288    0.9318 0
Si  Si  0.5630    0.1186    0.8419 0
Si  Si  0.2905    0.2508    0.8469 0
Si  Si  0.5632    0.0292    0.1124 0
Si  Si  0.5628    0.8417    0.9386 0
Si  Si  0.9321    0.2896    0.0282 0
Si  Si  0.8865    0.2564    0.0286 0
Si  Si  0.8860    0.1992    0.0285 0
Si  Si  0.9318    0.1658    0.0284 0
Si  Si  0.9319    0.1090    0.0282 0
Si  Si  0.8813    0.1596    0.2562 0
Si  Si  0.9378    0.2001    0.1596 0
Si  Si  0.8812    0.1598    0.1995 0
Si  Si  0.7437    0.1601    0.0620 0
Si  Si  0.1586    0.6201    0.1183 0
Si  Si  0.9322    0.6546    0.0282 0
Si  Si  0.8875    0.6203    0.0287 0
Si  Si  0.0619    0.6203    0.8410 0
Si  Si  0.2053    0.3477    0.9378 0
Si  Si  0.2050    0.2904    0.8807 0
Si  Si  0.2044    0.3476    0.8808 0
Si  Si  0.0620    0.4721    0.7961 0
Si  Si  0.1192    0.5290    0.7968 0
Si  Si  0.2094    0.4723    0.2492 0
Si  Si  0.1526    0.4719    0.2492 0
Si  Si  0.9380    0.2905    0.2054 0
 O   O  0.5552    0.8642    0.0442 0
 O   O  0.5915    0.1670    0.9427 0
 O   O  0.5914    0.1226    0.1667 0
 O   O  0.5917    0.0341    0.1053 0
 O   O  0.9098    0.2724    0.0372 0
 O   O  0.8930    0.2277    0.0333 0
 O   O  0.9091    0.1827    0.0371 0
 O   O  0.9240    0.1374    0.0323 0
 O   O  0.9237    0.6829    0.0316 0
 O   O  0.9097    0.1527    0.2613 0
 O   O  0.7724    0.1678    0.1232 0
 O   O  0.8492    0.1959    0.0907 0
 O   O  0.9428    0.2286    0.1666 0
 O   O  0.9551    0.8639    0.7355 0
 O   O  0.9554    0.8630    0.8094 0
 O   O  0.9101    0.6372    0.0376 0
 O   O  0.6249    0.0904    0.1514 0
 O   O  0.9559    0.6283    0.8635 0
 O   O  0.2119    0.3524    0.9092 0
 O   O  0.1986    0.3191    0.9426 0
 O   O  0.1978    0.3189    0.8760 0
 O   O  0.2122    0.2856    0.9092 0
 O   O  0.0906    0.4673    0.7895 0
 O   O  0.8188    0.2741    0.8724 0
 O   O  0.8175    0.2736    0.9462 0
 O   O  0.9471    0.5464    0.1818 0
 O   O  0.8731    0.5457    0.1801 0
 O   O  0.9466    0.3639    0.8182 0
 O   O  0.8731    0.3639    0.8190 0
 O   O  0.1810    0.4671    0.2420 0
 O   O  0.7283    0.4548    0.8557 0
 O   O  0.2712    0.4545    0.7819 0
 O   O  0.2263    0.5372    0.8643 0
 O   O  0.5364    0.2281    0.9542 0
 O   O  0.6362    0.7820    0.7277 0
 O   O  0.7573    0.8192    0.6480 0
 O   O  0.7273    0.8561    0.6360 0
 O   O  0.3188    0.2586    0.2140 0
 O   O  0.5578    0.9110    0.1514 0
 O   O  0.5464    0.0383    0.0898 0
Si  Si  0.0286    0.4723    0.4318 0
Si  Si  0.9375    0.3824    0.3419 0
Si  Si  0.2099    0.2503    0.3469 0
Si  Si  0.9373    0.4718    0.6124 0
Si  Si  0.9376    0.6594    0.4385 0
Si  Si  0.5684    0.2115    0.5282 0
Si  Si  0.6139    0.2447    0.5286 0
Si  Si  0.6144    0.3019    0.5285 0
Si  Si  0.5687    0.3353    0.5284 0
Si  Si  0.5686    0.3921    0.5282 0
Si  Si  0.6192    0.3415    0.7562 0
Si  Si  0.5627    0.3010    0.6596 0
Si  Si  0.6193    0.3413    0.6995 0
Si  Si  0.7568    0.3410    0.5620 0
Si  Si  0.3419    0.8810    0.6183 0
Si  Si  0.5683    0.8465    0.5282 0
Si  Si  0.6130    0.8808    0.5287 0
Si  Si  0.4386    0.8808    0.3410 0
Si  Si  0.2951    0.1534    0.4378 0
Si  Si  0.2955    0.2107    0.3807 0
Si  Si  0.2960    0.1535    0.3808 0
Si  Si  0.4384    0.0290    0.2961 0
Si  Si  0.3813    0.9721    0.2968 0
Si  Si  0.2911    0.0288    0.7492 0
Si  Si  0.3479    0.0291    0.7492 0
Si  Si  0.5624    0.2106    0.7054 0
 O   O  0.9453    0.6369    0.5442 0
 O   O  0.9090    0.3341    0.4427 0
 O   O  0.9091    0.3785    0.6667 0
 O   O  0.9088    0.4670    0.6054 0
 O   O  0.5906    0.2287    0.5372 0
 O   O  0.6075    0.2734    0.5333 0
 O   O  0.5914    0.3184    0.5371 0
 O   O  0.5765    0.3638    0.5323 0
 O   O  0.5768    0.8182    0.5316 0
 O   O  0.5907    0.3484    0.7613 0
 O   O  0.7280    0.3333    0.6232 0
 O   O  0.6512    0.3052    0.5907 0
 O   O  0.5576    0.2725    0.6666 0
 O   O  0.5454    0.6372    0.2355 0
 O   O  0.5451    0.6381    0.3094 0
 O   O  0.5904    0.8639    0.5376 0
 O   O  0.8755    0.4107    0.6514 0
 O   O  0.5446    0.8728    0.3635 0
 O   O  0.2886    0.1487    0.4092 0
 O   O  0.3019    0.1820    0.4426 0
 O   O  0.3026    0.1822    0.3760 0
 O   O  0.2883    0.2154    0.4092 0
 O   O  0.4098    0.0337    0.2895 0
 O   O  0.6816    0.2270    0.3724 0
 O   O  0.6829    0.2275    0.4462 0
 O   O  0.5534    0.9547    0.6818 0
 O   O  0.6274    0.9554    0.6801 0
 O   O  0.5538    0.1372    0.3182 0
 O   O  0.6274    0.1372    0.3190 0
 O   O  0.3194    0.0340    0.7420 0
 O   O  0.7721    0.0462    0.3557 0
 O   O  0.2292    0.0466    0.2819 0
 O   O  0.2742    0.9639    0.3643 0
 O   O  0.9640    0.2730    0.4542 0
 O   O  0.8642    0.7190    0.2276 0
 O   O  0.7432    0.6819    0.1480 0
 O   O  0.7732    0.6450    0.1360 0
 O   O  0.1816    0.2425    0.7140 0
 O   O  0.9426    0.5901    0.6514 0
 O   O  0.9541    0.4628    0.5898 0
Si  Si  0.5286    0.9723    0.9318 0
Si  Si  0.4375    0.8824    0.8419 0
Si  Si  0.7099    0.7503    0.8469 0
Si  Si  0.4373    0.9719    0.1124 0
Si  Si  0.4376    0.1594    0.9386 0
Si  Si  0.0684    0.7115    0.0282 0
Si  Si  0.1140    0.7448    0.0286 0
Si  Si  0.1144    0.8019    0.0285 0
Si  Si  0.0687    0.8353    0.0284 0
Si  Si  0.0686    0.8921    0.0282 0
Si  Si  0.1192    0.8415    0.2562 0
Si  Si  0.0627    0.8010    0.1596 0
Si  Si  0.1193    0.8413    0.1995 0
Si  Si  0.2568    0.8411    0.0620 0
Si  Si  0.8419    0.3810    0.1183 0
Si  Si  0.0683    0.3465    0.0282 0
Si  Si  0.1130    0.3808    0.0287 0
Si  Si  0.9386    0.3808    0.8410 0
Si  Si  0.7951    0.6534    0.9378 0
Si  Si  0.7955    0.7107    0.8807 0
Si  Si  0.7960    0.6535    0.8808 0
Si  Si  0.9384    0.5290    0.7961 0
Si  Si  0.8812    0.4721    0.7968 0
Si  Si  0.7911    0.5288    0.2492 0
Si  Si  0.8479    0.5292    0.2492 0
Si  Si  0.0624    0.7106    0.2054 0
 O   O  0.4453    0.1369    0.0442 0
 O   O  0.4089    0.8341    0.9427 0
 O   O  0.4091    0.8785    0.1667 0
 O   O  0.4088    0.9670    0.1054 0
 O   O  0.0907    0.7288    0.0372 0
 O   O  0.1075    0.7734    0.0333 0
 O   O  0.0914    0.8184    0.0371 0
 O   O  0.0765    0.8638    0.0323 0
 O   O  0.0768    0.3182    0.0316 0
 O   O  0.0907    0.8484    0.2613 0
 O   O  0.2281    0.8333    0.1232 0
 O   O  0.1512    0.8052    0.0907 0
 O   O  0.0576    0.7725    0.1666 0
 O   O  0.0453    0.1371    0.7355 0
 O   O  0.0450    0.1381    0.8094 0
 O   O  0.0904    0.3639    0.0376 0
 O   O  0.3756    0.9107    0.1514 0
 O   O  0.0446    0.3728    0.8635 0
 O   O  0.7886    0.6487    0.9092 0
 O   O  0.8018    0.6820    0.9426 0
 O   O  0.8026    0.6822    0.8760 0
 O   O  0.7883    0.7154    0.9092 0
 O   O  0.9098    0.5337    0.7895 0
 O   O  0.1816    0.7269    0.8724 0
 O   O  0.1829    0.7275    0.9462 0
 O   O  0.0534    0.4547    0.1818 0
 O   O  0.1274    0.4554    0.1801 0
 O   O  0.0538    0.6372    0.8182 0
 O   O  0.1274    0.6372    0.8190 0
 O   O  0.8195    0.5340    0.2420 0
 O   O  0.2721    0.5462    0.8557 0
 O   O  0.7292    0.5466    0.7820 0
 O   O  0.7741    0.4639    0.8643 0
 O   O  0.4640    0.7730    0.9542 0
 O   O  0.3642    0.2190    0.7276 0
 O   O  0.2432    0.1819    0.6480 0
 O   O  0.2731    0.1450    0.6360 0
 O   O  0.6816    0.7425    0.2140 0
 O   O  0.4427    0.0902    0.1514 0
 O   O  0.4541    0.9628    0.0898 0
Si  Si  0.9719    0.4723    0.5682 0
Si  Si  0.0630    0.3824    0.6581 0
Si  Si  0.7905    0.2503    0.6531 0
Si  Si  0.0632    0.4719    0.3876 0
Si  Si  0.0629    0.6594    0.5614 0
Si  Si  0.4321    0.2115    0.4718 0
Si  Si  0.3865    0.2447    0.4714 0
Si  Si  0.3860    0.3019    0.4715 0
Si  Si  0.4318    0.3353    0.4716 0
Si  Si  0.4319    0.3921    0.4718 0
Si  Si  0.3813    0.3415    0.2438 0
Si  Si  0.4378    0.3010    0.3404 0
Si  Si  0.3812    0.3413    0.3005 0
Si  Si  0.2437    0.3410    0.4380 0
Si  Si  0.6586    0.8810    0.3817 0
Si  Si  0.4322    0.8465    0.4718 0
Si  Si  0.3875    0.8808    0.4713 0
Si  Si  0.5619    0.8808    0.6590 0
Si  Si  0.7053    0.1534    0.5622 0
Si  Si  0.7050    0.2107    0.6193 0
Si  Si  0.7044    0.1535    0.6192 0
Si  Si  0.5620    0.0289    0.7039 0
Si  Si  0.6192    0.9721    0.7032 0
Si  Si  0.7094    0.0288    0.2508 0
Si  Si  0.6525    0.0292    0.2508 0
Si  Si  0.4380    0.2106    0.2946 0
 O   O  0.0551    0.6369    0.4558 0
 O   O  0.0915    0.3341    0.5573 0
 O   O  0.0914    0.3785    0.3333 0
 O   O  0.0917    0.4670    0.3946 0
 O   O  0.4098    0.2287    0.4627 0
 O   O  0.3929    0.2734    0.4667 0
 O   O  0.4091    0.3184    0.4628 0
 O   O  0.4239    0.3638    0.4677 0
 O   O  0.4237    0.8182    0.4684 0
 O   O  0.4097    0.3484    0.2387 0
 O   O  0.2724    0.3333    0.3768 0
 O   O  0.3492    0.3052    0.4093 0
 O   O  0.4428    0.2725    0.3334 0
 O   O  0.4551    0.6371    0.7645 0
 O   O  0.4554    0.6381    0.6906 0
 O   O  0.4101    0.8639    0.4624 0
 O   O  0.1249    0.4107    0.3486 0
 O   O  0.4559    0.8728    0.6365 0
 O   O  0.7119    0.1487    0.5908 0
 O   O  0.6986    0.1820    0.5574 0
 O   O  0.6979    0.1822    0.6239 0
 O   O  0.7122    0.2155    0.5908 0
 O   O  0.5906    0.0337    0.7105 0
 O   O  0.3189    0.2270    0.6276 0
 O   O  0.3175    0.2275    0.5538 0
 O   O  0.4471    0.9547    0.3182 0
 O   O  0.3731    0.9554    0.3199 0
 O   O  0.4466    0.1372    0.6818 0
 O   O  0.3731    0.1372    0.6809 0
 O   O  0.6810    0.0340    0.2580 0
 O   O  0.2283    0.0462    0.6443 0
 O   O  0.7713    0.0466    0.7180 0
 O   O  0.7263    0.9639    0.6357 0
 O   O  0.0364    0.2730    0.5458 0
 O   O  0.1362    0.7190    0.7723 0
 O   O  0.2573    0.6818    0.8520 0
 O   O  0.2273    0.6450    0.8640 0
 O   O  0.8188    0.2425    0.2860 0
 O   O  0.0578    0.5902    0.3486 0
 O   O  0.0464    0.4628    0.4102 0
Si  Si  0.4719    0.9723    0.0682 0
Si  Si  0.5630    0.8824    0.1581 0
Si  Si  0.2905    0.7503    0.1531 0
Si  Si  0.5632    0.9718    0.8876 0
Si  Si  0.5629    0.1594    0.0614 0
Si  Si  0.9321    0.7115    0.9718 0
Si  Si  0.8865    0.7447    0.9714 0
Si  Si  0.8860    0.8019    0.9715 0
Si  Si  0.9318    0.8353    0.9716 0
Si  Si  0.9319    0.8921    0.9718 0
Si  Si  0.8813    0.8415    0.7438 0
Si  Si  0.9378    0.8010    0.8404 0
Si  Si  0.8812    0.8413    0.8005 0
Si  Si  0.7437    0.8410    0.9380 0
Si  Si  0.1586    0.3810    0.8817 0
Si  Si  0.9321    0.3465    0.9718 0
Si  Si  0.8875    0.3808    0.9713 0
Si  Si  0.0619    0.3808    0.1590 0
Si  Si  0.2053    0.6534    0.0622 0
Si  Si  0.2050    0.7107    0.1193 0
Si  Si  0.2044    0.6535    0.1192 0
Si  Si  0.0620    0.5290    0.2039 0
Si  Si  0.1192    0.4721    0.2032 0
Si  Si  0.2093    0.5288    0.7508 0
Si  Si  0.1525    0.5292    0.7508 0
Si  Si  0.9380    0.7106    0.7946 0
 O   O  0.5551    0.1369    0.9558 0
 O   O  0.5915    0.8341    0.0572 0
 O   O  0.5914    0.8785    0.8333 0
 O   O  0.5917    0.9670    0.8946 0
 O   O  0.9098    0.7287    0.9628 0
 O   O  0.8929    0.7734    0.9667 0
 O   O  0.9091    0.8184    0.9628 0
 O   O  0.9239    0.8637    0.9677 0
 O   O  0.9237    0.3182    0.9684 0
 O   O  0.9097    0.8484    0.7387 0
 O   O  0.7724    0.8333    0.8768 0
 O   O  0.8492    0.8052    0.9093 0
 O   O  0.9428    0.7725    0.8334 0
 O   O  0.9551    0.1372    0.2645 0
 O   O  0.9554    0.1381    0.1906 0
 O   O  0.9101    0.3639    0.9624 0
 O   O  0.6249    0.9107    0.8486 0
 O   O  0.9559    0.3728    0.1365 0
 O   O  0.2119    0.6487    0.0908 0
 O   O  0.1986    0.6820    0.0574 0
 O   O  0.1979    0.6822    0.1240 0
 O   O  0.2122    0.7155    0.0908 0
 O   O  0.0907    0.5337    0.2105 0
 O   O  0.8189    0.7270    0.1276 0
 O   O  0.8175    0.7275    0.0538 0
 O   O  0.9471    0.4547    0.8182 0
 O   O  0.8731    0.4554    0.8199 0
 O   O  0.9466    0.6372    0.1818 0
 O   O  0.8731    0.6372    0.1809 0
 O   O  0.1810    0.5340    0.7580 0
 O   O  0.7283    0.5462    0.1443 0
 O   O  0.2713    0.5466    0.2180 0
 O   O  0.2263    0.4639    0.1357 0
 O   O  0.5364    0.7730    0.0458 0
 O   O  0.6362    0.2190    0.2723 0
 O   O  0.7573    0.1819    0.3520 0
 O   O  0.7273    0.1450    0.3640 0
 O   O  0.3188    0.7425    0.7860 0
 O   O  0.5578    0.0901    0.8486 0
 O   O  0.5464    0.9628    0.9102 0
Si  Si  0.0286    0.5288    0.5682 0
Si  Si  0.9375    0.6186    0.6581 0
Si  Si  0.2099    0.7508    0.6531 0
Si  Si  0.9373    0.5292    0.3876 0
Si  Si  0.9376    0.3417    0.5614 0
Si  Si  0.5684    0.7896    0.4718 0
Si  Si  0.6140    0.7563    0.4714 0
Si  Si  0.6145    0.6992    0.4715 0
Si  Si  0.5687    0.6658    0.4716 0
Si  Si  0.5686    0.6090    0.4718 0
Si  Si  0.6192    0.6596    0.2438 0
Si  Si  0.5627    0.7002    0.3404 0
Si  Si  0.6193    0.6598    0.3005 0
Si  Si  0.7568    0.6600    0.4380 0
Si  Si  0.3419    0.1201    0.3817 0
Si  Si  0.5683    0.1546    0.4718 0
Si  Si  0.6130    0.1203    0.4713 0
Si  Si  0.4386    0.1203    0.6590 0
Si  Si  0.2952    0.8477    0.5622 0
Si  Si  0.2955    0.7904    0.6193 0
Si  Si  0.2960    0.8475    0.6192 0
Si  Si  0.4384    0.9721    0.7039 0
Si  Si  0.3812    0.0290    0.7032 0
Si  Si  0.2911    0.9723    0.2508 0
Si  Si  0.3479    0.9719    0.2508 0
Si  Si  0.5624    0.7905    0.2946 0
 O   O  0.9453    0.3642    0.4558 0
 O   O  0.9090    0.6670    0.5573 0
 O   O  0.9091    0.6226    0.3333 0
 O   O  0.9088    0.5341    0.3946 0
 O   O  0.5906    0.7723    0.4627 0
 O   O  0.6075    0.7277    0.4667 0
 O   O  0.5914    0.6827    0.4629 0
 O   O  0.5765    0.6373    0.4677 0
 O   O  0.5768    0.1829    0.4684 0
 O   O  0.5907    0.6527    0.2387 0
 O   O  0.7280    0.6678    0.3768 0
 O   O  0.6512    0.6959    0.4093 0
 O   O  0.5576    0.7286    0.3334 0
 O   O  0.5454    0.3639    0.7645 0
 O   O  0.5451    0.3630    0.6906 0
 O   O  0.5904    0.1372    0.4624 0
 O   O  0.8755    0.5904    0.3486 0
 O   O  0.5446    0.1283    0.6365 0
 O   O  0.2886    0.8524    0.5908 0
 O   O  0.3019    0.8191    0.5574 0
 O   O  0.3026    0.8189    0.6240 0
 O   O  0.2883    0.7856    0.5908 0
 O   O  0.4098    0.9674    0.7105 0
 O   O  0.6816    0.7741    0.6276 0
 O   O  0.6829    0.7736    0.5538 0
 O   O  0.5534    0.0464    0.3182 0
 O   O  0.6274    0.0457    0.3199 0
 O   O  0.5538    0.8639    0.6818 0
 O   O  0.6274    0.8639    0.6810 0
 O   O  0.3195    0.9671    0.2580 0
 O   O  0.7721    0.9548    0.6443 0
 O   O  0.2292    0.9545    0.7180 0
 O   O  0.2741    0.0372    0.6357 0
 O   O  0.9640    0.7281    0.5458 0
 O   O  0.8642    0.2820    0.7723 0
 O   O  0.7432    0.3192    0.8520 0
 O   O  0.7731    0.3561    0.8640 0
 O   O  0.1817    0.7586    0.2860 0
 O   O  0.9427    0.4109    0.3486 0
 O   O  0.9541    0.5383    0.4102 0
Si  Si  0.5286    0.0288    0.0682 0
Si  Si  0.4375    0.1187    0.1581 0
Si  Si  0.7099    0.2508    0.1531 0
Si  Si  0.4372    0.0292    0.8875 0
Si  Si  0.4376    0.8417    0.0614 0
Si  Si  0.0684    0.2896    0.9718 0
Si  Si  0.1139    0.2564    0.9714 0
Si  Si  0.1144    0.1992    0.9715 0
Si  Si  0.0687    0.1658    0.9716 0
Si  Si  0.0685    0.1089    0.9718 0
Si  Si  0.1192    0.1596    0.7438 0
Si  Si  0.0626    0.2001    0.8404 0
Si  Si  0.1192    0.1598    0.8005 0
Si  Si  0.2567    0.1600    0.9380 0
Si  Si  0.8419    0.6200    0.8817 0
Si  Si  0.0683    0.6546    0.9718 0
Si  Si  0.1129    0.6203    0.9713 0
Si  Si  0.9386    0.6203    0.1590 0
Si  Si  0.7952    0.3477    0.0622 0
Si  Si  0.7955    0.2904    0.1193 0
Si  Si  0.7960    0.3476    0.1192 0
Si  Si  0.9384    0.4722    0.2039 0
Si  Si  0.8812    0.5290    0.2032 0
Si  Si  0.7911    0.4723    0.7508 0
Si  Si  0.8479    0.4719    0.7508 0
Si  Si  0.0624    0.2905    0.7946 0
 O   O  0.4453    0.8642    0.9558 0
 O   O  0.4090    0.1670    0.0572 0
 O   O  0.4091    0.1226    0.8333 0
 O   O  0.4088    0.0341    0.8946 0
 O   O  0.0906    0.2723    0.9628 0
 O   O  0.1075    0.2277    0.9667 0
 O   O  0.0914    0.1827    0.9628 0
 O   O  0.0765    0.1373    0.9677 0
 O   O  0.0768    0.6829    0.9684 0
 O   O  0.0907    0.1527    0.7387 0
 O   O  0.2280    0.1678    0.8768 0
 O   O  0.1512    0.1959    0.9093 0
 O   O  0.0576    0.2286    0.8334 0
 O   O  0.0454    0.8639    0.2645 0
 O   O  0.0451    0.8630    0.1906 0
 O   O  0.0904    0.6372    0.9624 0
 O   O  0.3755    0.0904    0.8485 0
 O   O  0.0446    0.6283    0.1365 0
 O   O  0.7886    0.3524    0.0908 0
 O   O  0.8018    0.3191    0.0574 0
 O   O  0.8026    0.3189    0.1240 0
 O   O  0.7883    0.2856    0.0908 0
 O   O  0.9098    0.4674    0.2105 0
 O   O  0.1816    0.2741    0.1276 0
 O   O  0.1829    0.2736    0.0538 0
 O   O  0.0534    0.5464    0.8182 0
 O   O  0.1273    0.5456    0.8199 0
 O   O  0.0539    0.3639    0.1818 0
 O   O  0.1274    0.3639    0.1809 0
 O   O  0.8195    0.4671    0.7580 0
 O   O  0.2721    0.4549    0.1443 0
 O   O  0.7292    0.4545    0.2180 0
 O   O  0.7742    0.5372    0.1357 0
 O   O  0.4640    0.2281    0.0457 0
 O   O  0.3642    0.7821    0.2723 0
 O   O  0.2432    0.8193    0.3520 0
 O   O  0.2732    0.8561    0.3640 0
 O   O  0.6816    0.2586    0.7860 0
 O   O  0.4426    0.9109    0.8486 0
 O   O  0.4541    0.0383    0.9102 0
Si  Si  0.5285    0.5687    0.0283 0
Si  Si  0.6183    0.6586    0.9373 0
Si  Si  0.7505    0.6536    0.2097 0
Si  Si  0.5289    0.3881    0.9370 0
Si  Si  0.3413    0.5619    0.9374 0
Si  Si  0.7893    0.4723    0.5682 0
Si  Si  0.7560    0.4719    0.6137 0
Si  Si  0.6989    0.4720    0.6142 0
Si  Si  0.6655    0.4721    0.5685 0
Si  Si  0.6087    0.4723    0.5684 0
Si  Si  0.6593    0.2443    0.6190 0
Si  Si  0.6998    0.3409    0.5624 0
Si  Si  0.6594    0.3011    0.6190 0
Si  Si  0.6598    0.4386    0.7565 0
Si  Si  0.1197    0.3822    0.3416 0
Si  Si  0.1543    0.4723    0.5682 0
Si  Si  0.1199    0.4718    0.6127 0
Si  Si  0.1200    0.6595    0.4384 0
Si  Si  0.8474    0.5627    0.2949 0
Si  Si  0.7901    0.6199    0.2953 0
Si  Si  0.8472    0.6198    0.2958 0
Si  Si  0.9719    0.7044    0.4382 0
Si  Si  0.0287    0.7037    0.3810 0
Si  Si  0.9720    0.2513    0.2909 0
Si  Si  0.9717    0.2513    0.3477 0
Si  Si  0.7902    0.2952    0.5622 0
 O   O  0.3639    0.4563    0.9451 0
 O   O  0.6667    0.5577    0.9087 0
 O   O  0.6223    0.3339    0.9089 0
 O   O  0.5337    0.3952    0.9085 0
 O   O  0.7720    0.4632    0.5904 0
 O   O  0.7274    0.4672    0.6072 0
 O   O  0.6824    0.4633    0.5912 0
 O   O  0.6370    0.4682    0.5763 0
 O   O  0.1826    0.4688    0.5766 0
 O   O  0.6524    0.2392    0.5905 0
 O   O  0.6675    0.3773    0.7278 0
 O   O  0.6956    0.4099    0.6511 0
 O   O  0.7282    0.3339    0.5574 0
 O   O  0.3636    0.7651    0.5451 0
 O   O  0.3627    0.6911    0.5448 0
 O   O  0.1369    0.4629    0.5901 0
 O   O  0.5901    0.3492    0.8753 0
 O   O  0.1279    0.6371    0.5444 0
 O   O  0.8520    0.5914    0.2884 0
 O   O  0.8188    0.5579    0.3017 0
 O   O  0.8186    0.6246    0.3024 0
 O   O  0.7854    0.5914    0.2881 0
 O   O  0.9671    0.7111    0.4096 0
 O   O  0.7738    0.6282    0.6814 0
 O   O  0.7733    0.5543    0.6827 0
 O   O  0.0460    0.3188    0.5532 0
 O   O  0.0453    0.3205    0.6271 0
 O   O  0.8635    0.6824    0.5536 0
 O   O  0.8636    0.6815    0.6271 0
 O   O  0.9668    0.2585    0.3192 0
 O   O  0.9545    0.6448    0.7719 0
 O   O  0.9542    0.7187    0.2289 0
 O   O  0.0368    0.6363    0.2739 0
 O   O  0.7278    0.5463    0.9638 0
 O   O  0.2818    0.7729    0.8640 0
 O   O  0.3189    0.8526    0.7429 0
 O   O  0.3557    0.8645    0.7729 0
 O   O  0.7583    0.2865    0.1814 0
 O   O  0.4106    0.3492    0.9424 0
 O   O  0.5379    0.4107    0.9539 0
Si  Si  0.0284    0.0687    0.5283 0
Si  Si  0.1183    0.1586    0.4372 0
Si  Si  0.2505    0.1536    0.7097 0
Si  Si  0.0289    0.8881    0.4370 0
Si  Si  0.8414    0.0619    0.4374 0
Si  Si  0.2894    0.9723    0.0682 0
Si  Si  0.2560    0.9719    0.1137 0
Si  Si  0.1989    0.9720    0.1142 0
Si  Si  0.1655    0.9721    0.0685 0
Si  Si  0.1087    0.9723    0.0684 0
Si  Si  0.1593    0.7443    0.1190 0
Si  Si  0.1998    0.8409    0.0624 0
Si  Si  0.1594    0.8011    0.1190 0
Si  Si  0.1598    0.9386    0.2565 0
Si  Si  0.6197    0.8822    0.8416 0
Si  Si  0.6543    0.9723    0.0681 0
Si  Si  0.6200    0.9719    0.1127 0
Si  Si  0.6200    0.1595    0.9383 0
Si  Si  0.3473    0.0627    0.7949 0
Si  Si  0.2901    0.1198    0.7953 0
Si  Si  0.3472    0.1198    0.7958 0
Si  Si  0.4718    0.2044    0.9382 0
Si  Si  0.5286    0.2037    0.8810 0
Si  Si  0.4720    0.7513    0.7909 0
Si  Si  0.4717    0.7513    0.8477 0
Si  Si  0.2902    0.7952    0.0622 0
 O   O  0.8639    0.9563    0.4451 0
 O   O  0.1667    0.0577    0.4087 0
 O   O  0.1223    0.8339    0.4089 0
 O   O  0.0337    0.8952    0.4085 0
 O   O  0.2721    0.9632    0.0904 0
 O   O  0.2274    0.9672    0.1072 0
 O   O  0.1824    0.9633    0.0912 0
 O   O  0.1370    0.9682    0.0764 0
 O   O  0.6826    0.9689    0.0766 0
 O   O  0.1524    0.7392    0.0905 0
 O   O  0.1675    0.8773    0.2278 0
 O   O  0.1956    0.9099    0.1511 0
 O   O  0.2283    0.8339    0.0574 0
 O   O  0.8636    0.2652    0.0451 0
 O   O  0.8627    0.1911    0.0448 0
 O   O  0.6369    0.9629    0.0901 0
 O   O  0.0901    0.8492    0.3753 0
 O   O  0.6279    0.1371    0.0444 0
 O   O  0.3520    0.0914    0.7884 0
 O   O  0.3187    0.0579    0.8017 0
 O   O  0.3186    0.1245    0.8024 0
 O   O  0.2854    0.0914    0.7881 0
 O   O  0.4671    0.2111    0.9096 0
 O   O  0.2738    0.1282    0.1814 0
 O   O  0.2733    0.0543    0.1827 0
 O   O  0.5461    0.8188    0.0532 0
 O   O  0.5454    0.8205    0.1271 0
 O   O  0.3635    0.1824    0.0536 0
 O   O  0.3636    0.1815    0.1271 0
 O   O  0.4668    0.7585    0.8192 0
 O   O  0.4546    0.1448    0.2719 0
 O   O  0.4541    0.2186    0.7289 0
 O   O  0.5368    0.1363    0.7739 0
 O   O  0.2278    0.0463    0.4638 0
 O   O  0.7818    0.2729    0.3640 0
 O   O  0.8189    0.3526    0.2429 0
 O   O  0.8557    0.3645    0.2729 0
 O   O  0.2583    0.7865    0.6814 0
 O   O  0.9106    0.8492    0.4424 0
 O   O  0.0379    0.9107    0.4538 0
Si  Si  0.4720    0.5687    0.9717 0
Si  Si  0.3822    0.6586    0.0628 0
Si  Si  0.2499    0.6536    0.7903 0
Si  Si  0.4716    0.3881    0.0630 0
Si  Si  0.6591    0.5619    0.0626 0
Si  Si  0.2111    0.4723    0.4318 0
Si  Si  0.2445    0.4719    0.3863 0
Si  Si  0.3016    0.4720    0.3858 0
Si  Si  0.3350    0.4721    0.4315 0
Si  Si  0.3918    0.4723    0.4316 0
Si  Si  0.3412    0.2443    0.3810 0
Si  Si  0.3006    0.3409    0.4375 0
Si  Si  0.3410    0.3011    0.3810 0
Si  Si  0.3407    0.4386    0.2435 0
Si  Si  0.8807    0.3822    0.6584 0
Si  Si  0.8462    0.4723    0.4318 0
Si  Si  0.8805    0.4719    0.3873 0
Si  Si  0.8805    0.6595    0.5616 0
Si  Si  0.1531    0.5627    0.7050 0
Si  Si  0.2104    0.6198    0.7047 0
Si  Si  0.1532    0.6198    0.7042 0
Si  Si  0.0286    0.7044    0.5618 0
Si  Si  0.9718    0.7037    0.6190 0
Si  Si  0.0285    0.2513    0.7091 0
Si  Si  0.0288    0.2514    0.6523 0
Si  Si  0.2102    0.2952    0.4378 0
 O   O  0.6366    0.4563    0.0549 0
 O   O  0.3338    0.5577    0.0913 0
 O   O  0.3782    0.3339    0.0911 0
 O   O  0.4667    0.3952    0.0915 0
 O   O  0.2284    0.4632    0.4096 0
 O   O  0.2731    0.4672    0.3928 0
 O   O  0.3181    0.4633    0.4088 0
 O   O  0.3635    0.4682    0.4236 0
 O   O  0.8178    0.4688    0.4234 0
 O   O  0.3481    0.2392    0.4095 0
 O   O  0.3330    0.3773    0.2722 0
 O   O  0.3049    0.4099    0.3489 0
 O   O  0.2722    0.3339    0.4426 0
 O   O  0.6369    0.7651    0.4549 0
 O   O  0.6378    0.6911    0.4552 0
 O   O  0.8636    0.4629    0.4098 0
 O   O  0.4104    0.3492    0.1247 0
 O   O  0.8726    0.6371    0.4556 0
 O   O  0.1484    0.5914    0.7116 0
 O   O  0.1817    0.5579    0.6983 0
 O   O  0.1819    0.6246    0.6976 0
 O   O  0.2151    0.5913    0.7119 0
 O   O  0.0334    0.7111    0.5904 0
 O   O  0.2267    0.6282    0.3186 0
 O   O  0.2272    0.5543    0.3173 0
 O   O  0.9544    0.3188    0.4468 0
 O   O  0.9551    0.3204    0.3729 0
 O   O  0.1369    0.6824    0.4464 0
 O   O  0.1369    0.6815    0.3729 0
 O   O  0.0336    0.2585    0.6808 0
 O   O  0.0459    0.6448    0.2281 0
 O   O  0.0463    0.7186    0.7711 0
 O   O  0.9637    0.6362    0.7261 0
 O   O  0.2727    0.5463    0.0362 0
 O   O  0.7187    0.7729    0.1360 0
 O   O  0.6815    0.8526    0.2571 0
 O   O  0.6447    0.8646    0.2271 0
 O   O  0.2421    0.2865    0.8186 0
 O   O  0.5899    0.3493    0.0576 0
 O   O  0.4626    0.4107    0.0461 0
Si  Si  0.9720    0.0687    0.4717 0
Si  Si  0.8821    0.1586    0.5627 0
Si  Si  0.7500    0.1536    0.2903 0
Si  Si  0.9716    0.8881    0.5630 0
Si  Si  0.1591    0.0619    0.5626 0
Si  Si  0.7111    0.9723    0.9318 0
Si  Si  0.7445    0.9719    0.8863 0
Si  Si  0.8016    0.9720    0.8858 0
Si  Si  0.8350    0.9721    0.9315 0
Si  Si  0.8918    0.9723    0.9316 0
Si  Si  0.8412    0.7443    0.8810 0
Si  Si  0.8006    0.8409    0.9376 0
Si  Si  0.8410    0.8011    0.8810 0
Si  Si  0.8407    0.9385    0.7435 0
Si  Si  0.3807    0.8822    0.1584 0
Si  Si  0.3462    0.9723    0.9318 0
Si  Si  0.3805    0.9718    0.8873 0
Si  Si  0.3805    0.1596    0.0616 0
Si  Si  0.6531    0.0627    0.2050 0
Si  Si  0.7104    0.1199    0.2047 0
Si  Si  0.6533    0.1198    0.2042 0
Si  Si  0.5286    0.2044    0.0618 0
Si  Si  0.4718    0.2037    0.1190 0
Si  Si  0.5285    0.7513    0.2091 0
Si  Si  0.5288    0.7514    0.1523 0
Si  Si  0.7102    0.7952    0.9378 0
 O   O  0.1366    0.9563    0.5549 0
 O   O  0.8337    0.0577    0.5913 0
 O   O  0.8782    0.8339    0.5911 0
 O   O  0.9667    0.8952    0.5915 0
 O   O  0.7284    0.9632    0.9096 0
 O   O  0.7731    0.9672    0.8928 0
 O   O  0.8181    0.9633    0.9088 0
 O   O  0.8634    0.9682    0.9236 0
 O   O  0.3178    0.9688    0.9234 0
 O   O  0.8481    0.7392    0.9095 0
 O   O  0.8329    0.8773    0.7722 0
 O   O  0.8049    0.9099    0.8489 0
 O   O  0.7722    0.8339    0.9426 0
 O   O  0.1368    0.2651    0.9549 0
 O   O  0.1378    0.1911    0.9552 0
 O   O  0.3636    0.9629    0.9099 0
 O   O  0.9104    0.8492    0.6247 0
 O   O  0.3726    0.1371    0.9556 0
 O   O  0.6484    0.0914    0.2116 0
 O   O  0.6817    0.0579    0.1983 0
 O   O  0.6819    0.1246    0.1976 0
 O   O  0.7151    0.0914    0.2119 0
 O   O  0.5334    0.2111    0.0904 0
 O   O  0.7266    0.1282    0.8186 0
 O   O  0.7272    0.0543    0.8173 0
 O   O  0.4544    0.8187    0.9468 0
 O   O  0.4551    0.8204    0.8729 0
 O   O  0.6369    0.1824    0.9464 0
 O   O  0.6369    0.1815    0.8729 0
 O   O  0.5336    0.7585    0.1808 0
 O   O  0.5459    0.1448    0.7281 0
 O   O  0.5463    0.2186    0.2711 0
 O   O  0.4637    0.1363    0.2261 0
 O   O  0.7727    0.0463    0.5362 0
 O   O  0.2187    0.2729    0.6360 0
 O   O  0.1815    0.3526    0.7571 0
 O   O  0.1447    0.3645    0.7271 0
 O   O  0.7421    0.7865    0.3186 0
 O   O  0.0899    0.8492    0.5576 0
 O   O  0.9626    0.9107    0.5462 0
Si  Si  0.4720    0.4324    0.0283 0
Si  Si  0.3821    0.3425    0.9373 0
Si  Si  0.2500    0.3475    0.2097 0
Si  Si  0.4716    0.6129    0.9370 0
Si  Si  0.6591    0.4392    0.9374 0
Si  Si  0.2111    0.5288    0.5682 0
Si  Si  0.2445    0.5292    0.6137 0
Si  Si  0.3016    0.5291    0.6142 0
Si  Si  0.3350    0.5290    0.5685 0
Si  Si  0.3918    0.5288    0.5684 0
Si  Si  0.3412    0.7567    0.6190 0
Si  Si  0.3006    0.6602    0.5625 0
Si  Si  0.3410    0.7000    0.6190 0
Si  Si  0.3407    0.5625    0.7565 0
Si  Si  0.8807    0.6189    0.3416 0
Si  Si  0.8462    0.5288    0.5682 0
Si  Si  0.8805    0.5292    0.6127 0
Si  Si  0.8805    0.3415    0.4384 0
Si  Si  0.1531    0.4384    0.2949 0
Si  Si  0.2104    0.3813    0.2953 0
Si  Si  0.1533    0.3813    0.2958 0
Si  Si  0.0286    0.2966    0.4382 0
Si  Si  0.9718    0.2974    0.3810 0
Si  Si  0.0285    0.7498    0.2909 0
Si  Si  0.0288    0.7498    0.3477 0
Si  Si  0.2102    0.7059    0.5622 0
 O   O  0.6365    0.5447    0.9451 0
 O   O  0.3337    0.4434    0.9087 0
 O   O  0.3782    0.6672    0.9089 0
 O   O  0.4667    0.6059    0.9085 0
 O   O  0.2284    0.5379    0.5904 0
 O   O  0.2731    0.5339    0.6072 0
 O   O  0.3181    0.5378    0.5912 0
 O   O  0.3634    0.5329    0.5764 0
 O   O  0.8178    0.5322    0.5766 0
 O   O  0.3481    0.7619    0.5905 0
 O   O  0.3329    0.6238    0.7278 0
 O   O  0.3049    0.5912    0.6511 0
 O   O  0.2722    0.6672    0.5574 0
 O   O  0.6368    0.2359    0.5451 0
 O   O  0.6378    0.3100    0.5448 0
 O   O  0.8636    0.5382    0.5902 0
 O   O  0.4104    0.6519    0.8753 0
 O   O  0.8726    0.3640    0.5444 0
 O   O  0.1484    0.4097    0.2884 0
 O   O  0.1817    0.4432    0.3017 0
 O   O  0.1819    0.3766    0.3024 0
 O   O  0.2151    0.4097    0.2881 0
 O   O  0.0334    0.2900    0.4096 0
 O   O  0.2266    0.3729    0.6814 0
 O   O  0.2272    0.4468    0.6827 0
 O   O  0.9544    0.6823    0.5532 0
 O   O  0.9551    0.6806    0.6271 0
 O   O  0.1369    0.3187    0.5536 0
 O   O  0.1368    0.3196    0.6271 0
 O   O  0.0336    0.7426    0.3192 0
 O   O  0.0459    0.3563    0.7719 0
 O   O  0.0463    0.2824    0.2289 0
 O   O  0.9637    0.3648    0.2739 0
 O   O  0.2727    0.4548    0.9638 0
 O   O  0.7187    0.2282    0.8640 0
 O   O  0.6815    0.1485    0.7429 0
 O   O  0.6447    0.1365    0.7729 0
 O   O  0.2422    0.7146    0.1814 0
 O   O  0.5898    0.6518    0.9424 0
 O   O  0.4625    0.5903    0.9539 0
Si  Si  0.9720    0.9324    0.5283 0
Si  Si  0.8821    0.8425    0.4372 0
Si  Si  0.7500    0.8475    0.7097 0
Si  Si  0.9716    0.1130    0.4370 0
Si  Si  0.1591    0.9392    0.4374 0
Si  Si  0.7111    0.0288    0.0682 0
Si  Si  0.7445    0.0292    0.1137 0
Si  Si  0.8016    0.0291    0.1142 0
Si  Si  0.8350    0.0290    0.0685 0
Si  Si  0.8918    0.0288    0.0684 0
Si  Si  0.8412    0.2568    0.1190 0
Si  Si  0.8006    0.1602    0.0624 0
Si  Si  0.8410    0.2000    0.1190 0
Si  Si  0.8407    0.0625    0.2565 0
Si  Si  0.3807    0.1188    0.8416 0
Si  Si  0.3462    0.0288    0.0681 0
Si  Si  0.3805    0.0293    0.1127 0
Si  Si  0.3805    0.8415    0.9384 0
Si  Si  0.6531    0.9384    0.7949 0
Si  Si  0.7104    0.8812    0.7953 0
Si  Si  0.6533    0.8813    0.7958 0
Si  Si  0.5286    0.7966    0.9382 0
Si  Si  0.4718    0.7974    0.8810 0
Si  Si  0.5285    0.2498    0.7909 0
Si  Si  0.5288    0.2497    0.8477 0
Si  Si  0.7103    0.2059    0.0622 0
 O   O  0.1365    0.0448    0.4451 0
 O   O  0.8337    0.9434    0.4087 0
 O   O  0.8782    0.1672    0.4088 0
 O   O  0.9667    0.1059    0.4085 0
 O   O  0.7284    0.0379    0.0904 0
 O   O  0.7731    0.0339    0.1072 0
 O   O  0.8181    0.0378    0.0912 0
 O   O  0.8635    0.0329    0.0764 0
 O   O  0.3178    0.0322    0.0766 0
 O   O  0.8481    0.2619    0.0905 0
 O   O  0.8329    0.1238    0.2278 0
 O   O  0.8049    0.0912    0.1511 0
 O   O  0.7722    0.1672    0.0574 0
 O   O  0.1368    0.7360    0.0451 0
 O   O  0.1378    0.8100    0.0448 0
 O   O  0.3636    0.0382    0.0901 0
 O   O  0.9104    0.1519    0.3753 0
 O   O  0.3726    0.8640    0.0444 0
 O   O  0.6484    0.9097    0.7884 0
 O   O  0.6817    0.9432    0.8017 0
 O   O  0.6819    0.8765    0.8024 0
 O   O  0.7151    0.9097    0.7881 0
 O   O  0.5334    0.7900    0.9096 0
 O   O  0.7267    0.8729    0.1814 0
 O   O  0.7272    0.9468    0.1827 0
 O   O  0.4544    0.1823    0.0532 0
 O   O  0.4551    0.1806    0.1271 0
 O   O  0.6370    0.8187    0.0536 0
 O   O  0.6369    0.8196    0.1271 0
 O   O  0.5336    0.2426    0.8192 0
 O   O  0.5459    0.8563    0.2719 0
 O   O  0.5463    0.7824    0.7289 0
 O   O  0.4637    0.8648    0.7739 0
 O   O  0.7727    0.9548    0.4638 0
 O   O  0.2187    0.7282    0.3640 0
 O   O  0.1815    0.6485    0.2429 0
 O   O  0.1447    0.6366    0.2729 0
 O   O  0.7421    0.2146    0.6814 0
 O   O  0.0898    0.1519    0.4424 0
 O   O  0.9626    0.0903    0.4538 0
Si  Si  0.5284    0.4324    0.9717 0
Si  Si  0.6183    0.3425    0.0628 0
Si  Si  0.7505    0.3475    0.7903 0
Si  Si  0.5289    0.6130    0.0630 0
Si  Si  0.3414    0.4392    0.0626 0
Si  Si  0.7893    0.5288    0.4318 0
Si  Si  0.7560    0.5292    0.3863 0
Si  Si  0.6989    0.5291    0.3858 0
Si  Si  0.6655    0.5290    0.4315 0
Si  Si  0.6087    0.5288    0.4316 0
Si  Si  0.6593    0.7568    0.3810 0
Si  Si  0.6998    0.6602    0.4375 0
Si  Si  0.6594    0.7000    0.3810 0
Si  Si  0.6598    0.5625    0.2435 0
Si  Si  0.1197    0.6189    0.6584 0
Si  Si  0.1543    0.5288    0.4318 0
Si  Si  0.1200    0.5292    0.3873 0
Si  Si  0.1200    0.3416    0.5616 0
Si  Si  0.8474    0.4384    0.7050 0
Si  Si  0.7901    0.3812    0.7047 0
Si  Si  0.8472    0.3813    0.7042 0
Si  Si  0.9718    0.2966    0.5618 0
Si  Si  0.0286    0.2974    0.6190 0
Si  Si  0.9720    0.7498    0.7091 0
Si  Si  0.9717    0.7497    0.6523 0
Si  Si  0.7902    0.7059    0.4378 0
 O   O  0.3639    0.5448    0.0549 0
 O   O  0.6667    0.4434    0.0913 0
 O   O  0.6223    0.6672    0.0911 0
 O   O  0.5337    0.6059    0.0915 0
 O   O  0.7720    0.5379    0.4096 0
 O   O  0.7274    0.5339    0.3928 0
 O   O  0.6824    0.5378    0.4088 0
 O   O  0.6370    0.5329    0.4236 0
 O   O  0.1826    0.5322    0.4234 0
 O   O  0.6524    0.7619    0.4095 0
 O   O  0.6675    0.6238    0.2722 0
 O   O  0.6956    0.5913    0.3489 0
 O   O  0.7282    0.6672    0.4426 0
 O   O  0.3636    0.2360    0.4549 0
 O   O  0.3627    0.3100    0.4551 0
 O   O  0.1369    0.5382    0.4098 0
 O   O  0.5901    0.6519    0.1247 0
 O   O  0.1279    0.3640    0.4556 0
 O   O  0.8520    0.4097    0.7116 0
 O   O  0.8188    0.4432    0.6983 0
 O   O  0.8186    0.3765    0.6976 0
 O   O  0.7854    0.4097    0.7119 0
 O   O  0.9671    0.2900    0.5904 0
 O   O  0.7738    0.3729    0.3186 0
 O   O  0.7733    0.4468    0.3173 0
 O   O  0.0461    0.6823    0.4468 0
 O   O  0.0454    0.6806    0.3729 0
 O   O  0.8635    0.3187    0.4464 0
 O   O  0.8636    0.3196    0.3729 0
 O   O  0.9668    0.7425    0.6808 0
 O   O  0.9546    0.3563    0.2281 0
 O   O  0.9542    0.2824    0.7711 0
 O   O  0.0368    0.3648    0.7261 0
 O   O  0.7278    0.4548    0.0362 0
 O   O  0.2818    0.2282    0.1360 0
 O   O  0.3189    0.1485    0.2571 0
 O   O  0.3557    0.1365    0.2271 0
 O   O  0.7583    0.7145    0.8186 0
 O   O  0.4106    0.6519    0.0576 0
 O   O  0.5379    0.5904    0.0461 0
Si  Si  0.0284    0.9324    0.4717 0
Si  Si  0.1183    0.8425    0.5628 0
Si  Si  0.2505    0.8475    0.2903 0
Si  Si  0.0289    0.1130    0.5630 0
Si  Si  0.8414    0.9392    0.5626 0
Si  Si  0.2893    0.0287    0.9318 0
Si  Si  0.2560    0.0292    0.8863 0
Si  Si  0.1988    0.0291    0.8858 0
Si  Si  0.1654    0.0290    0.9315 0
Si  Si  0.1086    0.0288    0.9316 0
Si  Si  0.1593    0.2568    0.8810 0
Si  Si  0.1998    0.1602    0.9375 0
Si  Si  0.1594    0.2000    0.8810 0
Si  Si  0.1597    0.0625    0.7435 0
Si  Si  0.6197    0.1189    0.1584 0
Si  Si  0.6543    0.0288    0.9318 0
Si  Si  0.6199    0.0292    0.8873 0
Si  Si  0.6200    0.8416    0.0616 0
Si  Si  0.3474    0.9384    0.2050 0
Si  Si  0.2901    0.8812    0.2047 0
Si  Si  0.3472    0.8813    0.2042 0
Si  Si  0.4719    0.7967    0.0618 0
Si  Si  0.5287    0.7974    0.1190 0
Si  Si  0.4720    0.2498    0.2091 0
Si  Si  0.4717    0.2497    0.1523 0
Si  Si  0.2902    0.2059    0.9378 0
 O   O  0.8639    0.0448    0.5549 0
 O   O  0.1667    0.9434    0.5913 0
 O   O  0.1223    0.1672    0.5911 0
 O   O  0.0337    0.1059    0.5915 0
 O   O  0.2720    0.0379    0.9096 0
 O   O  0.2273    0.0339    0.8928 0
 O   O  0.1823    0.0377    0.9088 0
 O   O  0.1370    0.0329    0.9236 0
 O   O  0.6826    0.0322    0.9234 0
 O   O  0.1524    0.2619    0.9095 0
 O   O  0.1675    0.1238    0.7722 0
 O   O  0.1956    0.0912    0.8489 0
 O   O  0.2282    0.1672    0.9426 0
 O   O  0.8636    0.7359    0.9549 0
 O   O  0.8627    0.8100    0.9552 0
 O   O  0.6369    0.0382    0.9098 0
 O   O  0.0901    0.1519    0.6247 0
 O   O  0.6279    0.8640    0.9556 0
 O   O  0.3520    0.9097    0.2116 0
 O   O  0.3188    0.9432    0.1983 0
 O   O  0.3186    0.8766    0.1976 0
 O   O  0.2854    0.9097    0.2119 0
 O   O  0.4671    0.7900    0.0904 0
 O   O  0.2738    0.8729    0.8186 0
 O   O  0.2732    0.9468    0.8173 0
 O   O  0.5461    0.1823    0.9468 0
 O   O  0.5453    0.1806    0.8729 0
 O   O  0.3635    0.8187    0.9464 0
 O   O  0.3636    0.8196    0.8729 0
 O   O  0.4668    0.2425    0.1808 0
 O   O  0.4545    0.8563    0.7281 0
 O   O  0.4542    0.7825    0.2711 0
 O   O  0.5368    0.8648    0.2261 0
 O   O  0.2278    0.9548    0.5362 0
 O   O  0.7818    0.7282    0.6360 0
 O   O  0.8189    0.6485    0.7571 0
 O   O  0.8557    0.6365    0.7271 0
 O   O  0.2583    0.2146    0.3186 0
 O   O  0.9106    0.1518    0.5576 0
 O   O  0.0379    0.0904    0.5462 0
Si  Si  0.5684    0.9722    0.4718 0
Si  Si  0.6583    0.0633    0.3819 0
Si  Si  0.6533    0.7909    0.2497 0
Si  Si  0.3878    0.0635    0.4713 0
Si  Si  0.5616    0.0631    0.6588 0
Si  Si  0.4720    0.4324    0.2109 0
Si  Si  0.4716    0.3868    0.2442 0
Si  Si  0.4717    0.3863    0.3014 0
Si  Si  0.4718    0.4321    0.3348 0
Si  Si  0.4720    0.4322    0.3916 0
Si  Si  0.2440    0.3816    0.3409 0
Si  Si  0.3406    0.4381    0.3004 0
Si  Si  0.3008    0.3815    0.3408 0
Si  Si  0.4382    0.2440    0.3405 0
Si  Si  0.3819    0.6589    0.8805 0
Si  Si  0.4720    0.4324    0.8459 0
Si  Si  0.4716    0.3878    0.8803 0
Si  Si  0.6593    0.5621    0.8803 0
Si  Si  0.5624    0.7056    0.1529 0
Si  Si  0.6195    0.7053    0.2101 0
Si  Si  0.6195    0.7047    0.1530 0
Si  Si  0.7041    0.5623    0.0284 0
Si  Si  0.7034    0.6196    0.9716 0
Si  Si  0.2510    0.7097    0.0282 0
Si  Si  0.2510    0.6528    0.0286 0
Si  Si  0.2949    0.4384    0.2100 0
 O   O  0.4560    0.0554    0.6363 0
 O   O  0.5575    0.0918    0.3336 0
 O   O  0.3336    0.0917    0.3780 0
 O   O  0.3948    0.0920    0.4665 0
 O   O  0.4630    0.4102    0.2282 0
 O   O  0.4670    0.3933    0.2729 0
 O   O  0.4631    0.4094    0.3179 0
 O   O  0.4680    0.4242    0.3632 0
 O   O  0.4686    0.4239    0.8176 0
 O   O  0.2389    0.4101    0.3478 0
 O   O  0.3770    0.2727    0.3328 0
 O   O  0.4096    0.3495    0.3046 0
 O   O  0.3336    0.4432    0.2720 0
 O   O  0.7648    0.4554    0.6366 0
 O   O  0.6908    0.4557    0.6376 0
 O   O  0.4626    0.4104    0.8633 0
 O   O  0.3489    0.1253    0.4101 0
 O   O  0.6368    0.4562    0.8723 0
 O   O  0.5911    0.7122    0.1482 0
 O   O  0.5576    0.6989    0.1815 0
 O   O  0.6242    0.6981    0.1817 0
 O   O  0.5910    0.7125    0.2149 0
 O   O  0.7107    0.5910    0.0331 0
 O   O  0.6278    0.3192    0.2264 0
 O   O  0.5541    0.3178    0.2270 0
 O   O  0.3184    0.4475    0.9542 0
 O   O  0.3201    0.3733    0.9549 0
 O   O  0.6821    0.4470    0.1367 0
 O   O  0.6812    0.3733    0.1366 0
 O   O  0.2581    0.6813    0.0334 0
 O   O  0.6445    0.2287    0.0457 0
 O   O  0.7183    0.7716    0.0461 0
 O   O  0.6360    0.7266    0.9634 0
 O   O  0.5460    0.0368    0.2725 0
 O   O  0.7726    0.1366    0.7184 0
 O   O  0.8522    0.2577    0.6813 0
 O   O  0.8642    0.2276    0.6445 0
 O   O  0.2863    0.8192    0.2420 0
 O   O  0.3489    0.0581    0.5896 0
 O   O  0.4104    0.0467    0.4623 0
Si  Si  0.0683    0.4722    0.9718 0
Si  Si  0.1583    0.5633    0.8819 0
Si  Si  0.1533    0.2908    0.7498 0
Si  Si  0.8878    0.5635    0.9713 0
Si  Si  0.0617    0.5632    0.1588 0
Si  Si  0.9720    0.9324    0.7109 0
Si  Si  0.9716    0.8868    0.7442 0
Si  Si  0.9717    0.8863    0.8014 0
Si  Si  0.9718    0.9321    0.8348 0
Si  Si  0.9720    0.9322    0.8916 0
Si  Si  0.7440    0.8815    0.8409 0
Si  Si  0.8406    0.9381    0.8004 0
Si  Si  0.8008    0.8815    0.8408 0
Si  Si  0.9382    0.7440    0.8405 0
Si  Si  0.8819    0.1589    0.3805 0
Si  Si  0.9720    0.9324    0.3459 0
Si  Si  0.9716    0.8878    0.3803 0
Si  Si  0.1593    0.0622    0.3803 0
Si  Si  0.0624    0.2056    0.6529 0
Si  Si  0.1195    0.2053    0.7101 0
Si  Si  0.1195    0.2047    0.6530 0
Si  Si  0.2041    0.0623    0.5284 0
Si  Si  0.2034    0.1196    0.4716 0
Si  Si  0.7510    0.2097    0.5282 0
Si  Si  0.7510    0.1528    0.5286 0
Si  Si  0.7949    0.9384    0.7100 0
 O   O  0.9560    0.5554    0.1363 0
 O   O  0.0575    0.5918    0.8336 0
 O   O  0.8336    0.5917    0.8780 0
 O   O  0.8948    0.5920    0.9665 0
 O   O  0.9630    0.9102    0.7282 0
 O   O  0.9670    0.8933    0.7729 0
 O   O  0.9631    0.9094    0.8179 0
 O   O  0.9680    0.9242    0.8632 0
 O   O  0.9686    0.9239    0.3176 0
 O   O  0.7389    0.9100    0.8478 0
 O   O  0.8770    0.7727    0.8328 0
 O   O  0.9095    0.8495    0.8046 0
 O   O  0.8336    0.9432    0.7720 0
 O   O  0.2648    0.9555    0.1366 0
 O   O  0.1908    0.9557    0.1376 0
 O   O  0.9627    0.9104    0.3633 0
 O   O  0.8489    0.6253    0.9102 0
 O   O  0.1368    0.9562    0.3724 0
 O   O  0.0911    0.2122    0.6482 0
 O   O  0.0576    0.1989    0.6815 0
 O   O  0.1242    0.1981    0.6816 0
 O   O  0.0910    0.2125    0.7148 0
 O   O  0.2107    0.0910    0.5331 0
 O   O  0.1278    0.8192    0.7264 0
 O   O  0.0540    0.8178    0.7270 0
 O   O  0.8184    0.9475    0.4542 0
 O   O  0.8201    0.8734    0.4549 0
 O   O  0.1820    0.9470    0.6367 0
 O   O  0.1812    0.8733    0.6366 0
 O   O  0.7581    0.1813    0.5334 0
 O   O  0.1445    0.7286    0.5457 0
 O   O  0.2183    0.2716    0.5461 0
 O   O  0.1360    0.2266    0.4634 0
 O   O  0.0460    0.5368    0.7725 0
 O   O  0.2726    0.6366    0.2184 0
 O   O  0.3522    0.7577    0.1813 0
 O   O  0.3642    0.7277    0.1445 0
 O   O  0.7863    0.3191    0.7420 0
 O   O  0.8489    0.5581    0.0896 0
 O   O  0.9104    0.5467    0.9623 0
Si  Si  0.5683    0.0289    0.5282 0
Si  Si  0.6583    0.9378    0.6181 0
Si  Si  0.6533    0.2103    0.7502 0
Si  Si  0.3878    0.9376    0.5287 0
Si  Si  0.5617    0.9380    0.3412 0
Si  Si  0.4720    0.5687    0.7891 0
Si  Si  0.4716    0.6142    0.7558 0
Si  Si  0.4717    0.6147    0.6986 0
Si  Si  0.4718    0.5690    0.6652 0
Si  Si  0.4720    0.5689    0.6084 0
Si  Si  0.2440    0.6195    0.6591 0
Si  Si  0.3406    0.5629    0.6996 0
Si  Si  0.3007    0.6196    0.6592 0
Si  Si  0.4382    0.7571    0.6595 0
Si  Si  0.3819    0.3422    0.1195 0
Si  Si  0.4720    0.5687    0.1541 0
Si  Si  0.4716    0.6133    0.1197 0
Si  Si  0.6593    0.4389    0.1197 0
Si  Si  0.5624    0.2955    0.8471 0
Si  Si  0.6195    0.2958    0.7899 0
Si  Si  0.6195    0.2964    0.8470 0
Si  Si  0.7041    0.4388    0.9716 0
Si  Si  0.7034    0.3815    0.0284 0
Si  Si  0.2509    0.2914    0.9718 0
Si  Si  0.2510    0.3483    0.9714 0
Si  Si  0.2949    0.5627    0.7900 0
 O   O  0.4560    0.9457    0.3637 0
 O   O  0.5575    0.9093    0.6664 0
 O   O  0.3336    0.9094    0.6220 0
 O   O  0.3948    0.9091    0.5335 0
 O   O  0.4630    0.5909    0.7718 0
 O   O  0.4670    0.6077    0.7271 0
 O   O  0.4631    0.5917    0.6821 0
 O   O  0.4680    0.5769    0.6368 0
 O   O  0.4686    0.5772    0.1824 0
 O   O  0.2389    0.5910    0.6522 0
 O   O  0.3770    0.7284    0.6672 0
 O   O  0.4096    0.6515    0.6954 0
 O   O  0.3336    0.5579    0.7280 0
 O   O  0.7648    0.5456    0.3634 0
 O   O  0.6908    0.5454    0.3624 0
 O   O  0.4627    0.5907    0.1367 0
 O   O  0.3489    0.8758    0.5898 0
 O   O  0.6368    0.5449    0.1277 0
 O   O  0.5910    0.2889    0.8518 0
 O   O  0.5576    0.3022    0.8185 0
 O   O  0.6242    0.3030    0.8183 0
 O   O  0.5910    0.2886    0.7851 0
 O   O  0.7107    0.4101    0.9669 0
 O   O  0.6278    0.6819    0.7736 0
 O   O  0.5541    0.6832    0.7730 0
 O   O  0.3185    0.5536    0.0458 0
 O   O  0.3201    0.6277    0.0451 0
 O   O  0.6821    0.5541    0.8633 0
 O   O  0.6812    0.6277    0.8634 0
 O   O  0.2581    0.3198    0.9666 0
 O   O  0.6445    0.7724    0.9543 0
 O   O  0.7183    0.2295    0.9539 0
 O   O  0.6360    0.2745    0.0365 0
 O   O  0.5460    0.9643    0.7275 0
 O   O  0.7726    0.8646    0.2816 0
 O   O  0.8522    0.7434    0.3187 0
 O   O  0.8642    0.7735    0.3555 0
 O   O  0.2862    0.1819    0.7580 0
 O   O  0.3489    0.9430    0.4104 0
 O   O  0.4104    0.9544    0.5377 0
Si  Si  0.0684    0.5289    0.0282 0
Si  Si  0.1583    0.4378    0.1181 0
Si  Si  0.1533    0.7103    0.2502 0
Si  Si  0.8878    0.4376    0.0287 0
Si  Si  0.0617    0.4379    0.8412 0
Si  Si  0.9720    0.0687    0.2891 0
Si  Si  0.9716    0.1142    0.2557 0
Si  Si  0.9717    0.1147    0.1986 0
Si  Si  0.9718    0.0690    0.1652 0
Si  Si  0.9720    0.0689    0.1084 0
Si  Si  0.7440    0.1196    0.1591 0
Si  Si  0.8406    0.0630    0.1996 0
Si  Si  0.8008    0.1196    0.1592 0
Si  Si  0.9382    0.2571    0.1595 0
Si  Si  0.8819    0.8422    0.6195 0
Si  Si  0.9720    0.0686    0.6541 0
Si  Si  0.9716    0.1133    0.6197 0
Si  Si  0.1593    0.9389    0.6197 0
Si  Si  0.0624    0.7955    0.3471 0
Si  Si  0.1195    0.7958    0.2899 0
Si  Si  0.1195    0.7964    0.3470 0
Si  Si  0.2041    0.9388    0.4716 0
Si  Si  0.2034    0.8815    0.5284 0
Si  Si  0.7510    0.7914    0.4718 0
Si  Si  0.7510    0.8483    0.4714 0
Si  Si  0.7949    0.0627    0.2900 0
 O   O  0.9560    0.4457    0.8637 0
 O   O  0.0575    0.4093    0.1664 0
 O   O  0.8336    0.4094    0.1220 0
 O   O  0.8948    0.4091    0.0335 0
 O   O  0.9630    0.0909    0.2718 0
 O   O  0.9670    0.1078    0.2271 0
 O   O  0.9631    0.0917    0.1821 0
 O   O  0.9680    0.0769    0.1368 0
 O   O  0.9686    0.0771    0.6824 0
 O   O  0.7389    0.0910    0.1522 0
 O   O  0.8770    0.2284    0.1672 0
 O   O  0.9095    0.1516    0.1953 0
 O   O  0.8336    0.0579    0.2280 0
 O   O  0.2647    0.0456    0.8634 0
 O   O  0.1908    0.0454    0.8624 0
 O   O  0.9627    0.0907    0.6367 0
 O   O  0.8489    0.3758    0.0899 0
 O   O  0.1368    0.0449    0.6276 0
 O   O  0.0911    0.7889    0.3518 0
 O   O  0.0576    0.8022    0.3185 0
 O   O  0.1242    0.8030    0.3183 0
 O   O  0.0911    0.7886    0.2852 0
 O   O  0.2107    0.9101    0.4669 0
 O   O  0.1278    0.1819    0.2736 0
 O   O  0.0541    0.1833    0.2730 0
 O   O  0.8184    0.0536    0.5458 0
 O   O  0.8201    0.1277    0.5451 0
 O   O  0.1820    0.0541    0.3633 0
 O   O  0.1812    0.1278    0.3634 0
 O   O  0.7581    0.8198    0.4666 0
 O   O  0.1445    0.2724    0.4543 0
 O   O  0.2183    0.7295    0.4539 0
 O   O  0.1360    0.7745    0.5365 0
 O   O  0.0460    0.4643    0.2275 0
 O   O  0.2726    0.3645    0.7815 0
 O   O  0.3522    0.2434    0.8187 0
 O   O  0.3642    0.2735    0.8555 0
 O   O  0.7863    0.6819    0.2580 0
 O   O  0.8489    0.4430    0.9104 0
 O   O  0.9104    0.4544    0.0377 0
Si  Si  0.4321    0.9722    0.5282 0
Si  Si  0.3422    0.0633    0.6181 0
Si  Si  0.3471    0.7908    0.7502 0
Si  Si  0.6127    0.0635    0.5287 0
Si  Si  0.4388    0.0631    0.3412 0
Si  Si  0.5284    0.4324    0.7891 0
Si  Si  0.5288    0.3868    0.7558 0
Si  Si  0.5288    0.3863    0.6986 0
Si  Si  0.5287    0.4321    0.6652 0
Si  Si  0.5284    0.4322    0.6084 0
Si  Si  0.7564    0.3815    0.6591 0
Si  Si  0.6599    0.4381    0.6996 0
Si  Si  0.6997    0.3815    0.6592 0
Si  Si  0.5622    0.2440    0.6595 0
Si  Si  0.6185    0.6589    0.1195 0
Si  Si  0.5284    0.4325    0.1541 0
Si  Si  0.5289    0.3879    0.1197 0
Si  Si  0.3412    0.5622    0.1197 0
Si  Si  0.4380    0.7056    0.8471 0
Si  Si  0.3809    0.7053    0.7899 0
Si  Si  0.3810    0.7047    0.8470 0
Si  Si  0.2963    0.5623    0.9716 0
Si  Si  0.2971    0.6196    0.0284 0
Si  Si  0.7495    0.7097    0.9718 0
Si  Si  0.7494    0.6528    0.9714 0
Si  Si  0.7056    0.4384    0.7900 0
 O   O  0.5444    0.0554    0.3637 0
 O   O  0.4430    0.0918    0.6664 0
 O   O  0.6668    0.0917    0.6220 0
 O   O  0.6056    0.0920    0.5335 0
 O   O  0.5375    0.4102    0.7718 0
 O   O  0.5335    0.3933    0.7271 0
 O   O  0.5374    0.4094    0.6821 0
 O   O  0.5325    0.4242    0.6368 0
 O   O  0.5319    0.4240    0.1824 0
 O   O  0.7615    0.4100    0.6522 0
 O   O  0.6234    0.2727    0.6672 0
 O   O  0.5909    0.3495    0.6954 0
 O   O  0.6669    0.4432    0.7280 0
 O   O  0.2357    0.4554    0.3634 0
 O   O  0.3096    0.4557    0.3624 0
 O   O  0.5378    0.4104    0.1367 0
 O   O  0.6516    0.1253    0.5898 0
 O   O  0.3637    0.4562    0.1277 0
 O   O  0.4094    0.7122    0.8518 0
 O   O  0.4428    0.6988    0.8185 0
 O   O  0.3763    0.6981    0.8183 0
 O   O  0.4094    0.7125    0.7852 0
 O   O  0.2898    0.5909    0.9669 0
 O   O  0.3726    0.3192    0.7736 0
 O   O  0.4464    0.3178    0.7730 0
 O   O  0.6820    0.4475    0.0458 0
 O   O  0.6804    0.3734    0.0451 0
 O   O  0.3184    0.4470    0.8633 0
 O   O  0.3193    0.3733    0.8634 0
 O   O  0.7423    0.6813    0.9666 0
 O   O  0.3559    0.2286    0.9543 0
 O   O  0.2822    0.7716    0.9539 0
 O   O  0.3645    0.7266    0.0366 0
 O   O  0.4545    0.0368    0.7275 0
 O   O  0.2279    0.1366    0.2816 0
 O   O  0.1483    0.2577    0.3187 0
 O   O  0.1362    0.2276    0.3555 0
 O   O  0.7142    0.8191    0.7580 0
 O   O  0.6515    0.0581    0.4104 0
 O   O  0.5900    0.0467    0.5377 0
Si  Si  0.9321    0.4722    0.0282 0
Si  Si  0.8422    0.5633    0.1181 0
Si  Si  0.8471    0.2909    0.2502 0
Si  Si  0.1127    0.5635    0.0287 0
Si  Si  0.9388    0.5631    0.8412 0
Si  Si  0.0284    0.9324    0.2891 0
Si  Si  0.0288    0.8868    0.2557 0
Si  Si  0.0288    0.8864    0.1986 0
Si  Si  0.0287    0.9321    0.1652 0
Si  Si  0.0285    0.9322    0.1084 0
Si  Si  0.2564    0.8816    0.1591 0
Si  Si  0.1599    0.9381    0.1996 0
Si  Si  0.1997    0.8815    0.1592 0
Si  Si  0.0623    0.7440    0.1595 0
Si  Si  0.1185    0.1589    0.6195 0
Si  Si  0.0284    0.9324    0.6541 0
Si  Si  0.0289    0.8878    0.6197 0
Si  Si  0.8412    0.0622    0.6197 0
Si  Si  0.9381    0.2056    0.3471 0
Si  Si  0.8810    0.2053    0.2899 0
Si  Si  0.8810    0.2047    0.3470 0
Si  Si  0.7963    0.0623    0.4716 0
Si  Si  0.7971    0.1196    0.5284 0
Si  Si  0.2495    0.2097    0.4718 0
Si  Si  0.2495    0.1528    0.4714 0
Si  Si  0.2056    0.9384    0.2900 0
 O   O  0.0444    0.5554    0.8637 0
 O   O  0.9430    0.5918    0.1664 0
 O   O  0.1668    0.5917    0.1220 0
 O   O  0.1057    0.5920    0.0335 0
 O   O  0.0375    0.9102    0.2718 0
 O   O  0.0335    0.8933    0.2271 0
 O   O  0.0374    0.9094    0.1821 0
 O   O  0.0325    0.9242    0.1368 0
 O   O  0.0319    0.9239    0.6824 0
 O   O  0.2616    0.9101    0.1522 0
 O   O  0.1235    0.7727    0.1672 0
 O   O  0.0909    0.8496    0.1953 0
 O   O  0.1669    0.9432    0.2280 0
 O   O  0.7357    0.9554    0.8634 0
 O   O  0.8096    0.9557    0.8625 0
 O   O  0.0378    0.9104    0.6367 0
 O   O  0.1516    0.6253    0.0899 0
 O   O  0.8637    0.9562    0.6276 0
 O   O  0.9094    0.2122    0.3518 0
 O   O  0.9428    0.1989    0.3185 0
 O   O  0.8763    0.1981    0.3183 0
 O   O  0.9094    0.2125    0.2852 0
 O   O  0.7898    0.0910    0.4669 0
 O   O  0.8727    0.8192    0.2736 0
 O   O  0.9464    0.8178    0.2730 0
 O   O  0.1820    0.9475    0.5458 0
 O   O  0.1804    0.8734    0.5451 0
 O   O  0.8184    0.9470    0.3633 0
 O   O  0.8193    0.8733    0.3634 0
 O   O  0.2423    0.1813    0.4666 0
 O   O  0.8559    0.7286    0.4543 0
 O   O  0.7822    0.2716    0.4539 0
 O   O  0.8645    0.2266    0.5365 0
 O   O  0.9545    0.5368    0.2275 0
 O   O  0.7279    0.6365    0.7816 0
 O   O  0.6483    0.7577    0.8187 0
 O   O  0.6362    0.7276    0.8555 0
 O   O  0.2142    0.3192    0.2580 0
 O   O  0.1515    0.5581    0.9104 0
 O   O  0.0901    0.5467    0.0377 0
Si  Si  0.4321    0.0289    0.4718 0
Si  Si  0.3422    0.9378    0.3819 0
Si  Si  0.3471    0.2102    0.2497 0
Si  Si  0.6127    0.9376    0.4713 0
Si  Si  0.4388    0.9379    0.6588 0
Si  Si  0.5284    0.5687    0.2109 0
Si  Si  0.5288    0.6143    0.2442 0
Si  Si  0.5288    0.6147    0.3014 0
Si  Si  0.5287    0.5690    0.3348 0
Si  Si  0.5285    0.5689    0.3916 0
Si  Si  0.7564    0.6196    0.3409 0
Si  Si  0.6599    0.5630    0.3004 0
Si  Si  0.6997    0.6196    0.3408 0
Si  Si  0.5623    0.7571    0.3405 0
Si  Si  0.6185    0.3422    0.8805 0
Si  Si  0.5284    0.5686    0.8459 0
Si  Si  0.5289    0.6132    0.8803 0
Si  Si  0.3412    0.4389    0.8802 0
Si  Si  0.4381    0.2955    0.1529 0
Si  Si  0.3810    0.2958    0.2101 0
Si  Si  0.3810    0.2964    0.1530 0
Si  Si  0.2964    0.4388    0.0284 0
Si  Si  0.2971    0.3815    0.9716 0
Si  Si  0.7495    0.2914    0.0282 0
Si  Si  0.7495    0.3483    0.0286 0
Si  Si  0.7056    0.5627    0.2100 0
 O   O  0.5445    0.9457    0.6363 0
 O   O  0.4430    0.9093    0.3336 0
 O   O  0.6669    0.9094    0.3780 0
 O   O  0.6057    0.9091    0.4665 0
 O   O  0.5375    0.5909    0.2282 0
 O   O  0.5335    0.6078    0.2729 0
 O   O  0.5374    0.5917    0.3179 0
 O   O  0.5325    0.5769    0.3632 0
 O   O  0.5319    0.5771    0.8176 0
 O   O  0.7615    0.5910    0.3478 0
 O   O  0.6235    0.7284    0.3328 0
 O   O  0.5909    0.6516    0.3046 0
 O   O  0.6669    0.5579    0.2720 0
 O   O  0.2357    0.5456    0.6366 0
 O   O  0.3096    0.5454    0.6375 0
 O   O  0.5378    0.5907    0.8633 0
 O   O  0.6516    0.8758    0.4102 0
 O   O  0.3637    0.5449    0.8723 0
 O   O  0.4094    0.2889    0.1482 0
 O   O  0.4428    0.3022    0.1815 0
 O   O  0.3763    0.3030    0.1817 0
 O   O  0.4094    0.2886    0.2148 0
 O   O  0.2898    0.4101    0.0331 0
 O   O  0.3727    0.6819    0.2264 0
 O   O  0.4464    0.6833    0.2270 0
 O   O  0.6820    0.5536    0.9542 0
 O   O  0.6803    0.6277    0.9549 0
 O   O  0.3184    0.5541    0.1367 0
 O   O  0.3193    0.6278    0.1366 0
 O   O  0.7423    0.3198    0.0334 0
 O   O  0.3559    0.7725    0.0457 0
 O   O  0.2822    0.2295    0.0460 0
 O   O  0.3645    0.2745    0.9634 0
 O   O  0.4545    0.9643    0.2725 0
 O   O  0.2279    0.8645    0.7184 0
 O   O  0.1482    0.7434    0.6813 0
 O   O  0.1362    0.7734    0.6445 0
 O   O  0.7142    0.1819    0.2420 0
 O   O  0.6515    0.9430    0.5896 0
 O   O  0.5900    0.9544    0.4623 0
Si  Si  0.9321    0.5289    0.9718 0
Si  Si  0.8422    0.4378    0.8819 0
Si  Si  0.8471    0.7102    0.7498 0
Si  Si  0.1127    0.4376    0.9713 0
Si  Si  0.9388    0.4379    0.1588 0
Si  Si  0.0284    0.0687    0.7109 0
Si  Si  0.0288    0.1142    0.7442 0
Si  Si  0.0287    0.1147    0.8014 0
Si  Si  0.0286    0.0690    0.8348 0
Si  Si  0.0284    0.0689    0.8916 0
Si  Si  0.2564    0.1195    0.8409 0
Si  Si  0.1598    0.0630    0.8004 0
Si  Si  0.1997    0.1196    0.8407 0
Si  Si  0.0622    0.2571    0.8405 0
Si  Si  0.1185    0.8422    0.3805 0
Si  Si  0.0284    0.0687    0.3459 0
Si  Si  0.0289    0.1133    0.3803 0
Si  Si  0.8412    0.9390    0.3803 0
Si  Si  0.9380    0.7955    0.6529 0
Si  Si  0.8809    0.7958    0.7101 0
Si  Si  0.8810    0.7964    0.6530 0
Si  Si  0.7964    0.9388    0.5284 0
Si  Si  0.7971    0.8815    0.4716 0
Si  Si  0.2495    0.7914    0.5282 0
Si  Si  0.2495    0.8483    0.5286 0
Si  Si  0.2056    0.0627    0.7100 0
 O   O  0.0445    0.4457    0.1363 0
 O   O  0.9430    0.4093    0.8336 0
 O   O  0.1668    0.4094    0.8780 0
 O   O  0.1056    0.4091    0.9665 0
 O   O  0.0375    0.0909    0.7282 0
 O   O  0.0335    0.1078    0.7729 0
 O   O  0.0373    0.0917    0.8179 0
 O   O  0.0325    0.0769    0.8632 0
 O   O  0.0319    0.0772    0.3176 0
 O   O  0.2615    0.0910    0.8478 0
 O   O  0.1234    0.2284    0.8328 0
 O   O  0.0909    0.1516    0.8046 0
 O   O  0.1669    0.0579    0.7720 0
 O   O  0.7357    0.0457    0.1366 0
 O   O  0.8096    0.0454    0.1376 0
 O   O  0.0378    0.0907    0.3633 0
 O   O  0.1516    0.3758    0.9101 0
 O   O  0.8637    0.0449    0.3723 0
 O   O  0.9094    0.7889    0.6482 0
 O   O  0.9428    0.8022    0.6815 0
 O   O  0.8763    0.8030    0.6817 0
 O   O  0.9094    0.7886    0.7148 0
 O   O  0.7898    0.9101    0.5331 0
 O   O  0.8727    0.1819    0.7264 0
 O   O  0.9464    0.1832    0.7270 0
 O   O  0.1820    0.0536    0.4542 0
 O   O  0.1803    0.1277    0.4549 0
 O   O  0.8184    0.0541    0.6367 0
 O   O  0.8193    0.1277    0.6366 0
 O   O  0.2423    0.8198    0.5334 0
 O   O  0.8559    0.2724    0.5457 0
 O   O  0.7822    0.7295    0.5461 0
 O   O  0.8645    0.7745    0.4634 0
 O   O  0.9545    0.4643    0.7725 0
 O   O  0.7279    0.3645    0.2184 0
 O   O  0.6483    0.2434    0.1813 0
 O   O  0.6362    0.2734    0.1445 0
 O   O  0.2142    0.6819    0.7420 0
 O   O  0.1515    0.4430    0.0896 0
 O   O  0.0900    0.4544    0.9623 0
Si  Si  0.4720    0.0289    0.4319 0
Si  Si  0.3822    0.9378    0.3419 0
Si  Si  0.2500    0.2102    0.3469 0
Si  Si  0.4716    0.9376    0.6125 0
Si  Si  0.6590    0.9380    0.4385 0
Si  Si  0.2111    0.5687    0.5282 0
Si  Si  0.2445    0.6143    0.5286 0
Si  Si  0.3016    0.6148    0.5285 0
Si  Si  0.3350    0.5690    0.5284 0
Si  Si  0.3918    0.5689    0.5282 0
Si  Si  0.3411    0.6195    0.7562 0
Si  Si  0.3006    0.5630    0.6596 0
Si  Si  0.3410    0.6196    0.6995 0
Si  Si  0.3408    0.7571    0.5620 0
Si  Si  0.8807    0.3422    0.6183 0
Si  Si  0.8462    0.5687    0.5282 0
Si  Si  0.8805    0.6133    0.5286 0
Si  Si  0.8805    0.4389    0.3410 0
Si  Si  0.1531    0.2954    0.4378 0
Si  Si  0.2104    0.2958    0.3807 0
Si  Si  0.1533    0.2963    0.3808 0
Si  Si  0.0286    0.4388    0.2961 0
Si  Si  0.9718    0.3815    0.2969 0
Si  Si  0.0285    0.2914    0.7492 0
Si  Si  0.0288    0.3482    0.7492 0
Si  Si  0.2102    0.5627    0.7053 0
 O   O  0.6365    0.9457    0.5442 0
 O   O  0.3339    0.9093    0.4427 0
 O   O  0.3782    0.9094    0.6666 0
 O   O  0.4667    0.9091    0.6054 0
 O   O  0.2284    0.5909    0.5372 0
 O   O  0.2731    0.6078    0.5333 0
 O   O  0.3181    0.5917    0.5371 0
 O   O  0.3635    0.5769    0.5323 0
 O   O  0.8178    0.5772    0.5316 0
 O   O  0.3480    0.5910    0.7613 0
 O   O  0.3330    0.7284    0.6232 0
 O   O  0.3049    0.6516    0.5907 0
 O   O  0.2722    0.5579    0.6666 0
 O   O  0.6369    0.5456    0.2355 0
 O   O  0.6378    0.5454    0.3094 0
 O   O  0.8636    0.5907    0.5376 0
 O   O  0.4104    0.8758    0.6514 0
 O   O  0.8726    0.5449    0.3635 0
 O   O  0.1484    0.2889    0.4092 0
 O   O  0.1817    0.3022    0.4426 0
 O   O  0.1819    0.3029    0.3760 0
 O   O  0.2151    0.2886    0.4092 0
 O   O  0.0334    0.4101    0.2895 0
 O   O  0.2267    0.6819    0.3724 0
 O   O  0.2272    0.6833    0.4462 0
 O   O  0.9544    0.5536    0.6818 0
 O   O  0.9551    0.6277    0.6801 0
 O   O  0.1369    0.5541    0.3182 0
 O   O  0.1369    0.6278    0.3191 0
 O   O  0.0336    0.3198    0.7420 0
 O   O  0.0459    0.7725    0.3557 0
 O   O  0.0463    0.2295    0.2820 0
 O   O  0.9637    0.2744    0.3643 0
 O   O  0.2728    0.9643    0.4542 0
 O   O  0.7187    0.8646    0.2276 0
 O   O  0.6816    0.7434    0.1480 0
 O   O  0.6448    0.7734    0.1360 0
 O   O  0.2422    0.1819    0.7140 0
 O   O  0.5898    0.9430    0.6514 0
 O   O  0.4625    0.9544    0.5898 0
Si  Si  0.9720    0.5289    0.9319 0
Si  Si  0.8822    0.4378    0.8419 0
Si  Si  0.7500    0.7102    0.8469 0
Si  Si  0.9716    0.4376    0.1125 0
Si  Si  0.1590    0.4380    0.9386 0
Si  Si  0.7111    0.0687    0.0282 0
Si  Si  0.7445    0.1143    0.0286 0
Si  Si  0.8016    0.1148    0.0285 0
Si  Si  0.8350    0.0690    0.0284 0
Si  Si  0.8918    0.0689    0.0282 0
Si  Si  0.8411    0.1196    0.2562 0
Si  Si  0.8006    0.0630    0.1596 0
Si  Si  0.8410    0.1196    0.1995 0
Si  Si  0.8408    0.2571    0.0620 0
Si  Si  0.3807    0.8422    0.1183 0
Si  Si  0.3462    0.0687    0.0282 0
Si  Si  0.3805    0.1133    0.0287 0
Si  Si  0.3805    0.9389    0.8410 0
Si  Si  0.6531    0.7954    0.9378 0
Si  Si  0.7104    0.7958    0.8807 0
Si  Si  0.6533    0.7963    0.8808 0
Si  Si  0.5286    0.9387    0.7961 0
Si  Si  0.4718    0.8815    0.7969 0
Si  Si  0.5285    0.7914    0.2492 0
Si  Si  0.5288    0.8483    0.2492 0
Si  Si  0.7102    0.0627    0.2053 0
 O   O  0.1365    0.4457    0.0442 0
 O   O  0.8339    0.4093    0.9427 0
 O   O  0.8782    0.4094    0.1666 0
 O   O  0.9667    0.4091    0.1055 0
 O   O  0.7284    0.0910    0.0372 0
 O   O  0.7731    0.1078    0.0332 0
 O   O  0.8181    0.0917    0.0371 0
 O   O  0.8635    0.0769    0.0323 0
 O   O  0.3178    0.0772    0.0316 0
 O   O  0.8480    0.0910    0.2613 0
 O   O  0.8330    0.2284    0.1232 0
 O   O  0.8049    0.1516    0.0907 0
 O   O  0.7722    0.0579    0.1666 0
 O   O  0.1368    0.0456    0.7355 0
 O   O  0.1378    0.0454    0.8094 0
 O   O  0.3636    0.0907    0.0376 0
 O   O  0.9104    0.3758    0.1514 0
 O   O  0.3726    0.0449    0.8635 0
 O   O  0.6484    0.7889    0.9092 0
 O   O  0.6817    0.8022    0.9426 0
 O   O  0.6819    0.8029    0.8760 0
 O   O  0.7151    0.7885    0.9092 0
 O   O  0.5334    0.9101    0.7895 0
 O   O  0.7267    0.1819    0.8724 0
 O   O  0.7272    0.1833    0.9462 0
 O   O  0.4544    0.0536    0.1818 0
 O   O  0.4551    0.1278    0.1801 0
 O   O  0.6369    0.0541    0.8182 0
 O   O  0.6369    0.1278    0.8190 0
 O   O  0.5337    0.8198    0.2421 0
 O   O  0.5459    0.2725    0.8557 0
 O   O  0.5463    0.7295    0.7820 0
 O   O  0.4637    0.7744    0.8643 0
 O   O  0.7728    0.4643    0.9542 0
 O   O  0.2187    0.3645    0.7276 0
 O   O  0.1815    0.2434    0.6480 0
 O   O  0.1447    0.2734    0.6360 0
 O   O  0.7422    0.6819    0.2140 0
 O   O  0.0898    0.4430    0.1514 0
 O   O  0.9626    0.4544    0.0898 0
Si  Si  0.5284    0.9722    0.4319 0
Si  Si  0.6183    0.0633    0.3419 0
Si  Si  0.7504    0.7909    0.3469 0
Si  Si  0.5289    0.0635    0.6125 0
Si  Si  0.3415    0.0631    0.4385 0
Si  Si  0.7893    0.4324    0.5282 0
Si  Si  0.7560    0.3868    0.5286 0
Si  Si  0.6988    0.3863    0.5285 0
Si  Si  0.6655    0.4321    0.5284 0
Si  Si  0.6087    0.4322    0.5282 0
Si  Si  0.6593    0.3816    0.7562 0
Si  Si  0.6998    0.4381    0.6596 0
Si  Si  0.6595    0.3815    0.6995 0
Si  Si  0.6597    0.2440    0.5620 0
Si  Si  0.1197    0.6589    0.6183 0
Si  Si  0.1543    0.4324    0.5282 0
Si  Si  0.1200    0.3878    0.5286 0
Si  Si  0.1200    0.5622    0.3410 0
Si  Si  0.8473    0.7056    0.4378 0
Si  Si  0.7901    0.7053    0.3807 0
Si  Si  0.8472    0.7048    0.3808 0
Si  Si  0.9719    0.5624    0.2961 0
Si  Si  0.0287    0.6196    0.2969 0
Si  Si  0.9720    0.7097    0.7492 0
Si  Si  0.9716    0.6528    0.7492 0
Si  Si  0.7902    0.4384    0.7053 0
 O   O  0.3640    0.0554    0.5442 0
 O   O  0.6666    0.0918    0.4427 0
 O   O  0.6223    0.0917    0.6666 0
 O   O  0.5337    0.0920    0.6054 0
 O   O  0.7720    0.4101    0.5372 0
 O   O  0.7274    0.3933    0.5333 0
 O   O  0.6823    0.4094    0.5371 0
 O   O  0.6370    0.4242    0.5323 0
 O   O  0.1826    0.4239    0.5316 0
 O   O  0.6525    0.4101    0.7613 0
 O   O  0.6674    0.2727    0.6232 0
 O   O  0.6956    0.3495    0.5907 0
 O   O  0.7283    0.4432    0.6666 0
 O   O  0.3636    0.4555    0.2355 0
 O   O  0.3627    0.4557    0.3094 0
 O   O  0.1369    0.4104    0.5376 0
 O   O  0.5900    0.1253    0.6514 0
 O   O  0.1279    0.4562    0.3635 0
 O   O  0.8520    0.7122    0.4092 0
 O   O  0.8187    0.6989    0.4426 0
 O   O  0.8186    0.6982    0.3760 0
 O   O  0.7854    0.7125    0.4092 0
 O   O  0.9671    0.5910    0.2895 0
 O   O  0.7738    0.3192    0.3724 0
 O   O  0.7732    0.3178    0.4462 0
 O   O  0.0460    0.4474    0.6818 0
 O   O  0.0453    0.3733    0.6801 0
 O   O  0.8636    0.4470    0.3182 0
 O   O  0.8636    0.3733    0.3191 0
 O   O  0.9668    0.6813    0.7421 0
 O   O  0.9545    0.2286    0.3557 0
 O   O  0.9542    0.7716    0.2820 0
 O   O  0.0368    0.7267    0.3643 0
 O   O  0.7277    0.0368    0.4542 0
 O   O  0.2818    0.1366    0.2276 0
 O   O  0.3189    0.2577    0.1480 0
 O   O  0.3557    0.2277    0.1360 0
 O   O  0.7582    0.8192    0.7140 0
 O   O  0.4106    0.0581    0.6513 0
 O   O  0.5379    0.0467    0.5898 0
Si  Si  0.0284    0.4722    0.9318 0
Si  Si  0.1183    0.5633    0.8419 0
Si  Si  0.2504    0.2909    0.8469 0
Si  Si  0.0289    0.5635    0.1125 0
Si  Si  0.8415    0.5631    0.9386 0
Si  Si  0.2893    0.9324    0.0282 0
Si  Si  0.2560    0.8868    0.0286 0
Si  Si  0.1989    0.8863    0.0285 0
Si  Si  0.1655    0.9321    0.0284 0
Si  Si  0.1087    0.9322    0.0282 0
Si  Si  0.1593    0.8816    0.2562 0
Si  Si  0.1998    0.9381    0.1596 0
Si  Si  0.1595    0.8815    0.1995 0
Si  Si  0.1597    0.7440    0.0620 0
Si  Si  0.6197    0.1589    0.1183 0
Si  Si  0.6543    0.9324    0.0282 0
Si  Si  0.6200    0.8878    0.0287 0
Si  Si  0.6200    0.0622    0.8410 0
Si  Si  0.3473    0.2056    0.9378 0
Si  Si  0.2901    0.2053    0.8807 0
Si  Si  0.3472    0.2047    0.8808 0
Si  Si  0.4718    0.0623    0.7961 0
Si  Si  0.5286    0.1196    0.7969 0
Si  Si  0.4720    0.2097    0.2492 0
Si  Si  0.4717    0.1528    0.2492 0
Si  Si  0.2903    0.9384    0.2053 0
 O   O  0.8640    0.5554    0.0442 0
 O   O  0.1666    0.5918    0.9427 0
 O   O  0.1223    0.5917    0.1666 0
 O   O  0.0337    0.5920    0.1054 0
 O   O  0.2720    0.9102    0.0372 0
 O   O  0.2274    0.8933    0.0333 0
 O   O  0.1824    0.9094    0.0371 0
 O   O  0.1370    0.9242    0.0323 0
 O   O  0.6826    0.9239    0.0316 0
 O   O  0.1525    0.9101    0.2613 0
 O   O  0.1674    0.7727    0.1232 0
 O   O  0.1956    0.8495    0.0907 0
 O   O  0.2283    0.9432    0.1666 0
 O   O  0.8636    0.9554    0.7355 0
 O   O  0.8627    0.9557    0.8094 0
 O   O  0.6369    0.9104    0.0376 0
 O   O  0.0901    0.6253    0.1514 0
 O   O  0.6279    0.9562    0.8635 0
 O   O  0.3520    0.2122    0.9092 0
 O   O  0.3187    0.1989    0.9426 0
 O   O  0.3186    0.1981    0.8760 0
 O   O  0.2853    0.2125    0.9092 0
 O   O  0.4671    0.0910    0.7895 0
 O   O  0.2738    0.8192    0.8724 0
 O   O  0.2732    0.8178    0.9462 0
 O   O  0.5461    0.9475    0.1817 0
 O   O  0.5454    0.8734    0.1801 0
 O   O  0.3635    0.9470    0.8182 0
 O   O  0.3636    0.8733    0.8191 0
 O   O  0.4668    0.1813    0.2421 0
 O   O  0.4545    0.7286    0.8557 0
 O   O  0.4541    0.2716    0.7820 0
 O   O  0.5368    0.2267    0.8643 0
 O   O  0.2277    0.5368    0.9542 0
 O   O  0.7818    0.6365    0.7277 0
 O   O  0.8189    0.7577    0.6480 0
 O   O  0.8557    0.7277    0.6360 0
 O   O  0.2582    0.3192    0.2140 0
 O   O  0.9107    0.5581    0.1514 0
 O   O  0.0379    0.5467    0.0898 0
Si  Si  0.5284    0.0289    0.5682 0
Si  Si  0.6183    0.9378    0.6581 0
Si  Si  0.7504    0.2102    0.6531 0
Si  Si  0.5289    0.9376    0.3875 0
Si  Si  0.3415    0.9379    0.5615 0
Si  Si  0.7893    0.5687    0.4718 0
Si  Si  0.7560    0.6143    0.4714 0
Si  Si  0.6988    0.6148    0.4715 0
Si  Si  0.6655    0.5690    0.4716 0
Si  Si  0.6087    0.5689    0.4718 0
Si  Si  0.6593    0.6195    0.2438 0
Si  Si  0.6998    0.5630    0.3404 0
Si  Si  0.6595    0.6196    0.3005 0
Si  Si  0.6597    0.7571    0.4380 0
Si  Si  0.1197    0.3422    0.3817 0
Si  Si  0.1543    0.5687    0.4718 0
Si  Si  0.1200    0.6133    0.4713 0
Si  Si  0.1200    0.4389    0.6590 0
Si  Si  0.8473    0.2954    0.5622 0
Si  Si  0.7901    0.2958    0.6193 0
Si  Si  0.8472    0.2963    0.6192 0
Si  Si  0.9718    0.4387    0.7038 0
Si  Si  0.0286    0.3815    0.7031 0
Si  Si  0.9720    0.2914    0.2507 0
Si  Si  0.9717    0.3482    0.2508 0
Si  Si  0.7903    0.5627    0.2947 0
 O   O  0.3640    0.9457    0.4558 0
 O   O  0.6666    0.9093    0.5573 0
 O   O  0.6223    0.9094    0.3334 0
 O   O  0.5337    0.9091    0.3945 0
 O   O  0.7720    0.5909    0.4627 0
 O   O  0.7274    0.6078    0.4667 0
 O   O  0.6823    0.5917    0.4629 0
 O   O  0.6370    0.5769    0.4677 0
 O   O  0.1826    0.5772    0.4683 0
 O   O  0.6525    0.5910    0.2387 0
 O   O  0.6674    0.7284    0.3768 0
 O   O  0.6956    0.6516    0.4093 0
 O   O  0.7283    0.5579    0.3334 0
 O   O  0.3636    0.5456    0.7645 0
 O   O  0.3627    0.5454    0.6906 0
 O   O  0.1369    0.5907    0.4624 0
 O   O  0.5901    0.8758    0.3486 0
 O   O  0.1279    0.5449    0.6365 0
 O   O  0.8520    0.2889    0.5908 0
 O   O  0.8187    0.3022    0.5574 0
 O   O  0.8186    0.3029    0.6239 0
 O   O  0.7854    0.2886    0.5908 0
 O   O  0.9671    0.4101    0.7104 0
 O   O  0.7738    0.6819    0.6276 0
 O   O  0.7732    0.6833    0.5538 0
 O   O  0.0461    0.5536    0.3182 0
 O   O  0.0454    0.6277    0.3199 0
 O   O  0.8636    0.5541    0.6818 0
 O   O  0.8636    0.6277    0.6809 0
 O   O  0.9668    0.3198    0.2579 0
 O   O  0.9545    0.7725    0.6443 0
 O   O  0.9542    0.2295    0.7180 0
 O   O  0.0368    0.2744    0.6357 0
 O   O  0.7277    0.9643    0.5458 0
 O   O  0.2818    0.8645    0.7723 0
 O   O  0.3189    0.7434    0.8520 0
 O   O  0.3557    0.7734    0.8640 0
 O   O  0.7582    0.1819    0.2860 0
 O   O  0.4106    0.9430    0.3486 0
 O   O  0.5380    0.9544    0.4102 0
Si  Si  0.0285    0.5289    0.0682 0
Si  Si  0.1183    0.4378    0.1581 0
Si  Si  0.2505    0.7103    0.1531 0
Si  Si  0.0289    0.4376    0.8875 0
Si  Si  0.8415    0.4380    0.0614 0
Si  Si  0.2893    0.0687    0.9718 0
Si  Si  0.2560    0.1142    0.9714 0
Si  Si  0.1988    0.1147    0.9715 0
Si  Si  0.1654    0.0690    0.9716 0
Si  Si  0.1086    0.0689    0.9718 0
Si  Si  0.1593    0.1195    0.7438 0
Si  Si  0.1998    0.0630    0.8404 0
Si  Si  0.1595    0.1196    0.8005 0
Si  Si  0.1597    0.2571    0.9380 0
Si  Si  0.6197    0.8421    0.8817 0
Si  Si  0.6543    0.0687    0.9718 0
Si  Si  0.6199    0.1133    0.9713 0
Si  Si  0.6200    0.9389    0.1590 0
Si  Si  0.3473    0.7955    0.0622 0
Si  Si  0.2901    0.7958    0.1193 0
Si  Si  0.3472    0.7964    0.1192 0
Si  Si  0.4719    0.9388    0.2039 0
Si  Si  0.5287    0.8815    0.2031 0
Si  Si  0.4720    0.7914    0.7508 0
Si  Si  0.4717    0.8482    0.7508 0
Si  Si  0.2902    0.0627    0.7947 0
 O   O  0.8640    0.4457    0.9558 0
 O   O  0.1666    0.4093    0.0573 0
 O   O  0.1223    0.4094    0.8334 0
 O   O  0.0337    0.4091    0.8945 0
 O   O  0.2720    0.0909    0.9627 0
 O   O  0.2273    0.1078    0.9667 0
 O   O  0.1823    0.0917    0.9628 0
 O   O  0.1370    0.0769    0.9677 0
 O   O  0.6826    0.0772    0.9684 0
 O   O  0.1525    0.0910    0.7387 0
 O   O  0.1674    0.2284    0.8768 0
 O   O  0.1956    0.1516    0.9093 0
 O   O  0.2283    0.0579    0.8334 0
 O   O  0.8636    0.0457    0.2645 0
 O   O  0.8627    0.0454    0.1906 0
 O   O  0.6369    0.0907    0.9624 0
 O   O  0.0901    0.3758    0.8486 0
 O   O  0.6279    0.0449    0.1365 0
 O   O  0.3520    0.7889    0.0908 0
 O   O  0.3188    0.8022    0.0574 0
 O   O  0.3186    0.8030    0.1240 0
 O   O  0.2854    0.7886    0.0908 0
 O   O  0.4671    0.9101    0.2104 0
 O   O  0.2738    0.1819    0.1276 0
 O   O  0.2732    0.1833    0.0538 0
 O   O  0.5460    0.0537    0.8182 0
 O   O  0.5453    0.1277    0.8199 0
 O   O  0.3635    0.0541    0.1818 0
 O   O  0.3636    0.1278    0.1809 0
 O   O  0.4668    0.8197    0.7579 0
 O   O  0.4545    0.2725    0.1443 0
 O   O  0.4542    0.7295    0.2180 0
 O   O  0.5368    0.7744    0.1357 0
 O   O  0.2277    0.4643    0.0458 0
 O   O  0.7818    0.3645    0.2723 0
 O   O  0.8189    0.2434    0.3520 0
 O   O  0.8557    0.2734    0.3640 0
 O   O  0.2582    0.6819    0.7860 0
 O   O  0.9106    0.4430    0.8487 0
 O   O  0.0379    0.4544    0.9102 0
Si  Si  0.4720    0.9722    0.5682 0
Si  Si  0.3822    0.0633    0.6581 0
Si  Si  0.2500    0.7909    0.6531 0
Si  Si  0.4716    0.0635    0.3875 0
Si  Si  0.6590    0.0631    0.5615 0
Si  Si  0.2111    0.4324    0.4718 0
Si  Si  0.2445    0.3868    0.4714 0
Si  Si  0.3016    0.3863    0.4715 0
Si  Si  0.3350    0.4321    0.4716 0
Si  Si  0.3918    0.4322    0.4718 0
Si  Si  0.3411    0.3816    0.2438 0
Si  Si  0.3006    0.4381    0.3404 0
Si  Si  0.3410    0.3815    0.3005 0
Si  Si  0.3408    0.2440    0.4380 0
Si  Si  0.8807    0.6589    0.3817 0
Si  Si  0.8462    0.4324    0.4718 0
Si  Si  0.8805    0.3878    0.4713 0
Si  Si  0.8805    0.5622    0.6590 0
Si  Si  0.1531    0.7056    0.5622 0
Si  Si  0.2104    0.7053    0.6193 0
Si  Si  0.1533    0.7047    0.6192 0
Si  Si  0.0286    0.5623    0.7038 0
Si  Si  0.9718    0.6196    0.7031 0
Si  Si  0.0285    0.7097    0.2507 0
Si  Si  0.0288    0.6529    0.2508 0
Si  Si  0.2102    0.4384    0.2947 0
 O   O  0.6365    0.0554    0.4558 0
 O   O  0.3339    0.0918    0.5573 0
 O   O  0.3782    0.0917    0.3334 0
 O   O  0.4667    0.0920    0.3946 0
 O   O  0.2284    0.4101    0.4627 0
 O   O  0.2731    0.3933    0.4667 0
 O   O  0.3181    0.4094    0.4628 0
 O   O  0.3635    0.4242    0.4677 0
 O   O  0.8178    0.4239    0.4683 0
 O   O  0.3480    0.4101    0.2387 0
 O   O  0.3330    0.2727    0.3768 0
 O   O  0.3049    0.3495    0.4093 0
 O   O  0.2722    0.4432    0.3334 0
 O   O  0.6369    0.4555    0.7645 0
 O   O  0.6378    0.4557    0.6906 0
 O   O  0.8636    0.4104    0.4624 0
 O   O  0.4104    0.1253    0.3486 0
 O   O  0.8726    0.4562    0.6365 0
 O   O  0.1484    0.7122    0.5908 0
 O   O  0.1817    0.6989    0.5574 0
 O   O  0.1819    0.6981    0.6239 0
 O   O  0.2151    0.7125    0.5908 0
 O   O  0.0334    0.5910    0.7105 0
 O   O  0.2267    0.3192    0.6276 0
 O   O  0.2272    0.3178    0.5538 0
 O   O  0.9544    0.4474    0.3182 0
 O   O  0.9551    0.3733    0.3199 0
 O   O  0.1369    0.4470    0.6818 0
 O   O  0.1368    0.3733    0.6809 0
 O   O  0.0336    0.6813    0.2579 0
 O   O  0.0459    0.2286    0.6443 0
 O   O  0.0463    0.7716    0.7180 0
 O   O  0.9637    0.7267    0.6357 0
 O   O  0.2727    0.0368    0.5458 0
 O   O  0.7187    0.1366    0.7723 0
 O   O  0.6815    0.2577    0.8520 0
 O   O  0.6447    0.2277    0.8640 0
 O   O  0.2422    0.8192    0.2860 0
 O   O  0.5898    0.0581    0.3486 0
 O   O  0.4625    0.0467    0.4102 0
Si  Si  0.9720    0.4722    0.0682 0
Si  Si  0.8822    0.5633    0.1581 0
Si  Si  0.7500    0.2909    0.1531 0
Si  Si  0.9716    0.5635    0.8875 0
Si  Si  0.1590    0.5631    0.0614 0
Si  Si  0.7111    0.9324    0.9718 0
Si  Si  0.7445    0.8868    0.9714 0
Si  Si  0.8016    0.8863    0.9715 0
Si  Si  0.8350    0.9321    0.9716 0
Si  Si  0.8918    0.9322    0.9718 0
Si  Si  0.8411    0.8815    0.7438 0
Si  Si  0.8006    0.9381    0.8404 0
Si  Si  0.8410    0.8815    0.8005 0
Si  Si  0.8408    0.7440    0.9380 0
Si  Si  0.3807    0.1589    0.8817 0
Si  Si  0.3461    0.9324    0.9718 0
Si  Si  0.3805    0.8878    0.9713 0
Si  Si  0.3805    0.0622    0.1590 0
Si  Si  0.6532    0.2056    0.0622 0
Si  Si  0.7104    0.2053    0.1192 0
Si  Si  0.6533    0.2048    0.1192 0
Si  Si  0.5286    0.0624    0.2038 0
Si  Si  0.4718    0.1196    0.2031 0
Si  Si  0.5285    0.2097    0.7507 0
Si  Si  0.5288    0.1529    0.7508 0
Si  Si  0.7102    0.9384    0.7947 0
 O   O  0.1365    0.5554    0.9558 0
 O   O  0.8339    0.5918    0.0573 0
 O   O  0.8782    0.5917    0.8334 0
 O   O  0.9667    0.5920    0.8945 0
 O   O  0.7284    0.9101    0.9627 0
 O   O  0.7731    0.8933    0.9667 0
 O   O  0.8181    0.9094    0.9628 0
 O   O  0.8635    0.9242    0.9677 0
 O   O  0.3178    0.9239    0.9684 0
 O   O  0.8480    0.9101    0.7387 0
 O   O  0.8330    0.7727    0.8768 0
 O   O  0.8049    0.8495    0.9093 0
 O   O  0.7722    0.9432    0.8334 0
 O   O  0.1369    0.9555    0.2645 0
 O   O  0.1378    0.9557    0.1906 0
 O   O  0.3635    0.9104    0.9624 0
 O   O  0.9104    0.6253    0.8486 0
 O   O  0.3726    0.9562    0.1365 0
 O   O  0.6485    0.2122    0.0908 0
 O   O  0.6817    0.1989    0.0574 0
 O   O  0.6819    0.1982    0.1239 0
 O   O  0.7151    0.2125    0.0908 0
 O   O  0.5334    0.0910    0.2104 0
 O   O  0.7267    0.8192    0.1276 0
 O   O  0.7272    0.8178    0.0538 0
 O   O  0.4544    0.9474    0.8182 0
 O   O  0.4551    0.8733    0.8199 0
 O   O  0.6369    0.9470    0.1818 0
 O   O  0.6369    0.8733    0.1809 0
 O   O  0.5336    0.1814    0.7579 0
 O   O  0.5459    0.7286    0.1443 0
 O   O  0.5463    0.2716    0.2180 0
 O   O  0.4637    0.2267    0.1357 0
 O   O  0.7728    0.5368    0.0458 0
 O   O  0.2187    0.6366    0.2723 0
 O   O  0.1816    0.7577    0.3520 0
 O   O  0.1447    0.7277    0.3640 0
 O   O  0.7422    0.3192    0.7860 0
 O   O  0.0898    0.5581    0.8487 0
 O   O  0.9625    0.5467    0.9102 0
Si  Si  0.4320    0.4723    0.0283 0
Si  Si  0.3421    0.3825    0.9373 0
Si  Si  0.3471    0.2503    0.2097 0
Si  Si  0.6127    0.4718    0.9370 0
Si  Si  0.4388    0.6593    0.9374 0
Si  Si  0.5284    0.2115    0.5682 0
Si  Si  0.5288    0.2447    0.6137 0
Si  Si  0.5288    0.3019    0.6142 0
Si  Si  0.5287    0.3353    0.5684 0
Si  Si  0.5284    0.3921    0.5683 0
Si  Si  0.7564    0.3415    0.6190 0
Si  Si  0.6598    0.3010    0.5624 0
Si  Si  0.6997    0.3413    0.6190 0
Si  Si  0.5623    0.3411    0.7565 0
Si  Si  0.6185    0.8810    0.3416 0
Si  Si  0.5284    0.8465    0.5681 0
Si  Si  0.5289    0.8808    0.6128 0
Si  Si  0.3413    0.8808    0.4384 0
Si  Si  0.4381    0.1534    0.2949 0
Si  Si  0.3810    0.2107    0.2952 0
Si  Si  0.3810    0.1536    0.2958 0
Si  Si  0.2963    0.0290    0.4382 0
Si  Si  0.2971    0.9721    0.3810 0
Si  Si  0.7494    0.0288    0.2908 0
Si  Si  0.7494    0.0292    0.3477 0
Si  Si  0.7056    0.2106    0.5622 0
 O   O  0.5445    0.6368    0.9451 0
 O   O  0.4429    0.3341    0.9087 0
 O   O  0.6670    0.3785    0.9089 0
 O   O  0.6056    0.4670    0.9085 0
 O   O  0.5375    0.2287    0.5904 0
 O   O  0.5335    0.2734    0.6073 0
 O   O  0.5374    0.3184    0.5912 0
 O   O  0.5325    0.3638    0.5763 0
 O   O  0.5319    0.8181    0.5766 0
 O   O  0.7615    0.3484    0.5905 0
 O   O  0.6235    0.3333    0.7278 0
 O   O  0.5909    0.3052    0.6510 0
 O   O  0.6668    0.2725    0.5574 0
 O   O  0.2357    0.6372    0.5451 0
 O   O  0.3096    0.6381    0.5448 0
 O   O  0.5378    0.8639    0.5902 0
 O   O  0.6517    0.4107    0.8753 0
 O   O  0.3637    0.8728    0.5444 0
 O   O  0.4094    0.1487    0.2883 0
 O   O  0.4429    0.1820    0.3016 0
 O   O  0.3763    0.1822    0.3023 0
 O   O  0.4094    0.2154    0.2880 0
 O   O  0.2897    0.0337    0.4096 0
 O   O  0.3726    0.2270    0.6814 0
 O   O  0.4464    0.2275    0.6827 0
 O   O  0.6820    0.9547    0.5532 0
 O   O  0.6803    0.9554    0.6271 0
 O   O  0.3184    0.1372    0.5536 0
 O   O  0.3193    0.1372    0.6271 0
 O   O  0.7422    0.0340    0.3192 0
 O   O  0.3559    0.0462    0.7719 0
 O   O  0.2822    0.0466    0.2289 0
 O   O  0.3645    0.9639    0.2739 0
 O   O  0.4544    0.2731    0.9638 0
 O   O  0.2279    0.7190    0.8640 0
 O   O  0.1482    0.6818    0.7429 0
 O   O  0.1362    0.6450    0.7729 0
 O   O  0.7142    0.2425    0.1814 0
 O   O  0.6517    0.5901    0.9424 0
 O   O  0.5901    0.4628    0.9539 0
Si  Si  0.9320    0.9723    0.5283 0
Si  Si  0.8421    0.8825    0.4372 0
Si  Si  0.8471    0.7503    0.7097 0
Si  Si  0.1127    0.9718    0.4370 0
Si  Si  0.9388    0.1593    0.4374 0
Si  Si  0.0284    0.7115    0.0682 0
Si  Si  0.0288    0.7448    0.1137 0
Si  Si  0.0288    0.8019    0.1142 0
Si  Si  0.0287    0.8353    0.0684 0
Si  Si  0.0285    0.8921    0.0683 0
Si  Si  0.2564    0.8415    0.1190 0
Si  Si  0.1598    0.8010    0.0624 0
Si  Si  0.1997    0.8413    0.1190 0
Si  Si  0.0623    0.8411    0.2565 0
Si  Si  0.1185    0.3810    0.8416 0
Si  Si  0.0284    0.3465    0.0681 0
Si  Si  0.0289    0.3808    0.1127 0
Si  Si  0.8413    0.3808    0.9383 0
Si  Si  0.9381    0.6534    0.7949 0
Si  Si  0.8810    0.7107    0.7952 0
Si  Si  0.8810    0.6535    0.7958 0
Si  Si  0.7963    0.5290    0.9382 0
Si  Si  0.7971    0.4721    0.8810 0
Si  Si  0.2494    0.5288    0.7909 0
Si  Si  0.2494    0.5292    0.8477 0
Si  Si  0.2056    0.7106    0.0622 0
 O   O  0.0445    0.1368    0.4451 0
 O   O  0.9430    0.8341    0.4087 0
 O   O  0.1670    0.8785    0.4089 0
 O   O  0.1056    0.9670    0.4085 0
 O   O  0.0375    0.7288    0.0904 0
 O   O  0.0335    0.7734    0.1073 0
 O   O  0.0374    0.8184    0.0912 0
 O   O  0.0325    0.8638    0.0763 0
 O   O  0.0319    0.3182    0.0766 0
 O   O  0.2616    0.8484    0.0905 0
 O   O  0.1235    0.8333    0.2278 0
 O   O  0.0909    0.8052    0.1510 0
 O   O  0.1668    0.7725    0.0574 0
 O   O  0.7357    0.1372    0.0451 0
 O   O  0.8097    0.1381    0.0448 0
 O   O  0.0379    0.3639    0.0902 0
 O   O  0.1517    0.9107    0.3753 0
 O   O  0.8637    0.3728    0.0444 0
 O   O  0.9094    0.6487    0.7883 0
 O   O  0.9428    0.6820    0.8016 0
 O   O  0.8763    0.6822    0.8023 0
 O   O  0.9094    0.7154    0.7880 0
 O   O  0.7897    0.5337    0.9096 0
 O   O  0.8727    0.7270    0.1814 0
 O   O  0.9464    0.7275    0.1827 0
 O   O  0.1820    0.4547    0.0532 0
 O   O  0.1803    0.4554    0.1271 0
 O   O  0.8185    0.6372    0.0536 0
 O   O  0.8193    0.6372    0.1272 0
 O   O  0.2422    0.5340    0.8192 0
 O   O  0.8560    0.5462    0.2719 0
 O   O  0.7822    0.5466    0.7289 0
 O   O  0.8645    0.4639    0.7739 0
 O   O  0.9545    0.7731    0.4638 0
 O   O  0.7279    0.2190    0.3640 0
 O   O  0.6482    0.1819    0.2429 0
 O   O  0.6362    0.1450    0.2729 0
 O   O  0.2142    0.7425    0.6814 0
 O   O  0.1517    0.0901    0.4424 0
 O   O  0.0901    0.9628    0.4538 0
Si  Si  0.4320    0.5288    0.9717 0
Si  Si  0.3421    0.6186    0.0628 0
Si  Si  0.3471    0.7508    0.7903 0
Si  Si  0.6127    0.5292    0.0630 0
Si  Si  0.4388    0.3417    0.0626 0
Si  Si  0.5284    0.7896    0.4318 0
Si  Si  0.5288    0.7563    0.3862 0
Si  Si  0.5288    0.6992    0.3858 0
Si  Si  0.5287    0.6658    0.4316 0
Si  Si  0.5285    0.6090    0.4317 0
Si  Si  0.7564    0.6596    0.3810 0
Si  Si  0.6598    0.7002    0.4375 0
Si  Si  0.6997    0.6598    0.3810 0
Si  Si  0.5623    0.6600    0.2435 0
Si  Si  0.6185    0.1201    0.6584 0
Si  Si  0.5284    0.1546    0.4319 0
Si  Si  0.5289    0.1203    0.3872 0
Si  Si  0.3413    0.1203    0.5616 0
Si  Si  0.4381    0.8477    0.7051 0
Si  Si  0.3810    0.7904    0.7048 0
Si  Si  0.3810    0.8475    0.7042 0
Si  Si  0.2964    0.9721    0.5618 0
Si  Si  0.2971    0.0290    0.6190 0
Si  Si  0.7494    0.9723    0.7091 0
Si  Si  0.7494    0.9719    0.6523 0
Si  Si  0.7056    0.7905    0.4378 0
 O   O  0.5445    0.3643    0.0549 0
 O   O  0.4430    0.6670    0.0913 0
 O   O  0.6670    0.6226    0.0911 0
 O   O  0.6056    0.5341    0.0915 0
 O   O  0.5375    0.7723    0.4096 0
 O   O  0.5335    0.7277    0.3927 0
 O   O  0.5374    0.6827    0.4088 0
 O   O  0.5325    0.6373    0.4237 0
 O   O  0.5319    0.1829    0.4234 0
 O   O  0.7615    0.6527    0.4095 0
 O   O  0.6235    0.6678    0.2722 0
 O   O  0.5909    0.6959    0.3490 0
 O   O  0.6668    0.7286    0.4426 0
 O   O  0.2357    0.3639    0.4549 0
 O   O  0.3096    0.3630    0.4551 0
 O   O  0.5378    0.1372    0.4098 0
 O   O  0.6517    0.5904    0.1247 0
 O   O  0.3637    0.1283    0.4556 0
 O   O  0.4094    0.8524    0.7117 0
 O   O  0.4428    0.8190    0.6984 0
 O   O  0.3763    0.8189    0.6977 0
 O   O  0.4094    0.7856    0.7120 0
 O   O  0.2897    0.9674    0.5904 0
 O   O  0.3727    0.7741    0.3186 0
 O   O  0.4464    0.7736    0.3173 0
 O   O  0.6820    0.0464    0.4468 0
 O   O  0.6803    0.0457    0.3729 0
 O   O  0.3185    0.8639    0.4464 0
 O   O  0.3193    0.8639    0.3729 0
 O   O  0.7422    0.9671    0.6808 0
 O   O  0.3560    0.9549    0.2281 0
 O   O  0.2822    0.9545    0.7711 0
 O   O  0.3645    0.0372    0.7261 0
 O   O  0.4545    0.7280    0.0362 0
 O   O  0.2279    0.2821    0.1360 0
 O   O  0.1482    0.3192    0.2571 0
 O   O  0.1362    0.3561    0.2271 0
 O   O  0.7142    0.7586    0.8186 0
 O   O  0.6517    0.4110    0.0576 0
 O   O  0.5901    0.5383    0.0461 0
Si  Si  0.9320    0.0288    0.4717 0
Si  Si  0.8421    0.1186    0.5627 0
Si  Si  0.8471    0.2508    0.2903 0
Si  Si  0.1127    0.0292    0.5630 0
Si  Si  0.9388    0.8417    0.5626 0
Si  Si  0.0284    0.2896    0.9318 0
Si  Si  0.0288    0.2563    0.8863 0
Si  Si  0.0287    0.1992    0.8858 0
Si  Si  0.0286    0.1658    0.9315 0
Si  Si  0.0284    0.1090    0.9317 0
Si  Si  0.2564    0.1596    0.8810 0
Si  Si  0.1598    0.2001    0.9375 0
Si  Si  0.1997    0.1598    0.8810 0
Si  Si  0.0622    0.1600    0.7435 0
Si  Si  0.1185    0.6201    0.1584 0
Si  Si  0.0284    0.6546    0.9319 0
Si  Si  0.0289    0.6203    0.8873 0
Si  Si  0.8413    0.6203    0.0617 0
Si  Si  0.9381    0.3477    0.2051 0
Si  Si  0.8810    0.2904    0.2048 0
Si  Si  0.8810    0.3475    0.2042 0
Si  Si  0.7964    0.4722    0.0618 0
Si  Si  0.7971    0.5290    0.1190 0
Si  Si  0.2494    0.4723    0.2091 0
Si  Si  0.2494    0.4719    0.1523 0
Si  Si  0.2056    0.2905    0.9378 0
 O   O  0.0445    0.8643    0.5549 0
 O   O  0.9430    0.1670    0.5913 0
 O   O  0.1669    0.1226    0.5911 0
 O   O  0.1056    0.0341    0.5915 0
 O   O  0.0375    0.2723    0.9096 0
 O   O  0.0335    0.2277    0.8927 0
 O   O  0.0374    0.1827    0.9088 0
 O   O  0.0325    0.1373    0.9237 0
 O   O  0.0319    0.6829    0.9234 0
 O   O  0.2615    0.1527    0.9095 0
 O   O  0.1234    0.1678    0.7722 0
 O   O  0.0909    0.1959    0.8490 0
 O   O  0.1668    0.2286    0.9426 0
 O   O  0.7357    0.8639    0.9549 0
 O   O  0.8096    0.8630    0.9552 0
 O   O  0.0378    0.6372    0.9098 0
 O   O  0.1517    0.0904    0.6247 0
 O   O  0.8637    0.6282    0.9556 0
 O   O  0.9094    0.3524    0.2117 0
 O   O  0.9428    0.3191    0.1984 0
 O   O  0.8763    0.3189    0.1977 0
 O   O  0.9094    0.2856    0.2120 0
 O   O  0.7897    0.4674    0.0904 0
 O   O  0.8727    0.2741    0.8186 0
 O   O  0.9464    0.2736    0.8173 0
 O   O  0.1820    0.5464    0.9468 0
 O   O  0.1803    0.5456    0.8729 0
 O   O  0.8184    0.3639    0.9464 0
 O   O  0.8193    0.3639    0.8729 0
 O   O  0.2422    0.4671    0.1808 0
 O   O  0.8559    0.4548    0.7281 0
 O   O  0.7822    0.4545    0.2711 0
 O   O  0.8645    0.5372    0.2261 0
 O   O  0.9545    0.2280    0.5362 0
 O   O  0.7279    0.7821    0.6360 0
 O   O  0.6482    0.8192    0.7571 0
 O   O  0.6362    0.8561    0.7271 0
 O   O  0.2142    0.2586    0.3186 0
 O   O  0.1517    0.9110    0.5576 0
 O   O  0.0901    0.0383    0.5461 0
Si  Si  0.5685    0.5288    0.0283 0
Si  Si  0.6584    0.6186    0.9373 0
Si  Si  0.6533    0.7508    0.2097 0
Si  Si  0.3878    0.5292    0.9370 0
Si  Si  0.5617    0.3417    0.9374 0
Si  Si  0.4720    0.7896    0.5682 0
Si  Si  0.4716    0.7563    0.6138 0
Si  Si  0.4717    0.6992    0.6142 0
Si  Si  0.4718    0.6658    0.5684 0
Si  Si  0.4720    0.6089    0.5683 0
Si  Si  0.2441    0.6596    0.6190 0
Si  Si  0.3407    0.7001    0.5625 0
Si  Si  0.3008    0.6598    0.6190 0
Si  Si  0.4382    0.6600    0.7565 0
Si  Si  0.3820    0.1201    0.3416 0
Si  Si  0.4720    0.1546    0.5681 0
Si  Si  0.4715    0.1203    0.6128 0
Si  Si  0.6592    0.1203    0.4384 0
Si  Si  0.5624    0.8477    0.2949 0
Si  Si  0.6195    0.7904    0.2952 0
Si  Si  0.6195    0.8476    0.2958 0
Si  Si  0.7041    0.9721    0.4382 0
Si  Si  0.7034    0.0290    0.3810 0
Si  Si  0.2511    0.9723    0.2909 0
Si  Si  0.2511    0.9719    0.3477 0
Si  Si  0.2949    0.7905    0.5622 0
 O   O  0.4560    0.3643    0.9451 0
 O   O  0.5575    0.6670    0.9087 0
 O   O  0.3335    0.6226    0.9089 0
 O   O  0.3948    0.5341    0.9085 0
 O   O  0.4630    0.7723    0.5904 0
 O   O  0.4670    0.7277    0.6073 0
 O   O  0.4631    0.6826    0.5912 0
 O   O  0.4680    0.6373    0.5763 0
 O   O  0.4686    0.1829    0.5766 0
 O   O  0.2389    0.6527    0.5905 0
 O   O  0.3770    0.6678    0.7278 0
 O   O  0.4096    0.6958    0.6510 0
 O   O  0.3337    0.7286    0.5574 0
 O   O  0.7647    0.3639    0.5451 0
 O   O  0.6908    0.3630    0.5448 0
 O   O  0.4626    0.1372    0.5902 0
 O   O  0.3487    0.5904    0.8753 0
 O   O  0.6367    0.1283    0.5444 0
 O   O  0.5911    0.8524    0.2883 0
 O   O  0.5576    0.8191    0.3016 0
 O   O  0.6242    0.8189    0.3023 0
 O   O  0.5910    0.7856    0.2880 0
 O   O  0.7107    0.9674    0.4096 0
 O   O  0.6278    0.7741    0.6814 0
 O   O  0.5540    0.7735    0.6827 0
 O   O  0.3185    0.0464    0.5532 0
 O   O  0.3201    0.0457    0.6271 0
 O   O  0.6820    0.8639    0.5536 0
 O   O  0.6812    0.8639    0.6272 0
 O   O  0.2583    0.9671    0.3192 0
 O   O  0.6445    0.9548    0.7719 0
 O   O  0.7183    0.9545    0.2289 0
 O   O  0.6360    0.0372    0.2739 0
 O   O  0.5460    0.7280    0.9638 0
 O   O  0.7726    0.2821    0.8640 0
 O   O  0.8522    0.3192    0.7429 0
 O   O  0.8642    0.3561    0.7729 0
 O   O  0.2863    0.7586    0.1814 0
 O   O  0.3488    0.4110    0.9424 0
 O   O  0.4104    0.5383    0.9539 0
Si  Si  0.0684    0.0288    0.5283 0
Si  Si  0.1584    0.1186    0.4372 0
Si  Si  0.1533    0.2508    0.7097 0
Si  Si  0.8878    0.0293    0.4370 0
Si  Si  0.0617    0.8418    0.4374 0
Si  Si  0.9720    0.2896    0.0682 0
Si  Si  0.9716    0.2564    0.1137 0
Si  Si  0.9717    0.1992    0.1142 0
Si  Si  0.9718    0.1658    0.0684 0
Si  Si  0.9720    0.1090    0.0683 0
Si  Si  0.7441    0.1596    0.1190 0
Si  Si  0.8407    0.2001    0.0624 0
Si  Si  0.8008    0.1598    0.1190 0
Si  Si  0.9382    0.1600    0.2565 0
Si  Si  0.8820    0.6200    0.8416 0
Si  Si  0.9720    0.6546    0.0681 0
Si  Si  0.9716    0.6203    0.1128 0
Si  Si  0.1592    0.6203    0.9383 0
Si  Si  0.0624    0.3477    0.7949 0
Si  Si  0.1195    0.2904    0.7952 0
Si  Si  0.1194    0.3475    0.7958 0
Si  Si  0.2041    0.4721    0.9382 0
Si  Si  0.2034    0.5290    0.8810 0
Si  Si  0.7510    0.4723    0.7909 0
Si  Si  0.7511    0.4719    0.8477 0
Si  Si  0.7949    0.2905    0.0622 0
 O   O  0.9560    0.8643    0.4451 0
 O   O  0.0575    0.1670    0.4087 0
 O   O  0.8335    0.1226    0.4089 0
 O   O  0.8949    0.0341    0.4085 0
 O   O  0.9630    0.2724    0.0904 0
 O   O  0.9670    0.2277    0.1073 0
 O   O  0.9631    0.1827    0.0912 0
 O   O  0.9680    0.1374    0.0763 0
 O   O  0.9686    0.6829    0.0766 0
 O   O  0.7389    0.1527    0.0905 0
 O   O  0.8770    0.1678    0.2278 0
 O   O  0.9096    0.1959    0.1510 0
 O   O  0.8337    0.2286    0.0574 0
 O   O  0.2647    0.8639    0.0451 0
 O   O  0.1908    0.8630    0.0448 0
 O   O  0.9627    0.6372    0.0902 0
 O   O  0.8487    0.0904    0.3753 0
 O   O  0.1368    0.6283    0.0444 0
 O   O  0.0910    0.3524    0.7883 0
 O   O  0.0576    0.3191    0.8016 0
 O   O  0.1242    0.3189    0.8023 0
 O   O  0.0910    0.2856    0.7880 0
 O   O  0.2107    0.4673    0.9096 0
 O   O  0.1278    0.2741    0.1814 0
 O   O  0.0540    0.2736    0.1827 0
 O   O  0.8185    0.5464    0.0532 0
 O   O  0.8202    0.5457    0.1271 0
 O   O  0.1820    0.3639    0.0536 0
 O   O  0.1812    0.3639    0.1272 0
 O   O  0.7583    0.4671    0.8192 0
 O   O  0.1445    0.4549    0.2719 0
 O   O  0.2183    0.4545    0.7289 0
 O   O  0.1359    0.5372    0.7739 0
 O   O  0.0460    0.2280    0.4638 0
 O   O  0.2726    0.7821    0.3640 0
 O   O  0.3522    0.8192    0.2429 0
 O   O  0.3643    0.8561    0.2729 0
 O   O  0.7862    0.2586    0.6814 0
 O   O  0.8488    0.9110    0.4424 0
 O   O  0.9104    0.0383    0.4538 0
Si  Si  0.5684    0.4723    0.9717 0
Si  Si  0.6584    0.3825    0.0628 0
Si  Si  0.6533    0.2503    0.7903 0
Si  Si  0.3878    0.4719    0.0630 0
Si  Si  0.5617    0.6593    0.0626 0
Si  Si  0.4720    0.2115    0.4318 0
Si  Si  0.4716    0.2447    0.3862 0
Si  Si  0.4717    0.3019    0.3858 0
Si  Si  0.4718    0.3353    0.4315 0
Si  Si  0.4720    0.3921    0.4317 0
Si  Si  0.2441    0.3415    0.3810 0
Si  Si  0.3407    0.3010    0.4375 0
Si  Si  0.3008    0.3413    0.3810 0
Si  Si  0.4382    0.3411    0.2435 0
Si  Si  0.3820    0.8810    0.6584 0
Si  Si  0.4720    0.8465    0.4319 0
Si  Si  0.4716    0.8808    0.3872 0
Si  Si  0.6592    0.8808    0.5616 0
Si  Si  0.5624    0.1534    0.7051 0
Si  Si  0.6195    0.2107    0.7047 0
Si  Si  0.6194    0.1536    0.7042 0
Si  Si  0.7041    0.0290    0.5618 0
Si  Si  0.7034    0.9721    0.6190 0
Si  Si  0.2510    0.0288    0.7091 0
Si  Si  0.2511    0.0291    0.6523 0
Si  Si  0.2949    0.2106    0.4378 0
 O   O  0.4560    0.6368    0.0549 0
 O   O  0.5575    0.3341    0.0913 0
 O   O  0.3335    0.3785    0.0911 0
 O   O  0.3949    0.4670    0.0915 0
 O   O  0.4630    0.2287    0.4096 0
 O   O  0.4670    0.2734    0.3927 0
 O   O  0.4631    0.3184    0.4088 0
 O   O  0.4680    0.3638    0.4237 0
 O   O  0.4686    0.8182    0.4234 0
 O   O  0.2389    0.3484    0.4095 0
 O   O  0.3770    0.3333    0.2722 0
 O   O  0.4096    0.3052    0.3490 0
 O   O  0.3337    0.2725    0.4426 0
 O   O  0.7647    0.6372    0.4549 0
 O   O  0.6908    0.6381    0.4552 0
 O   O  0.4626    0.8639    0.4098 0
 O   O  0.3488    0.4107    0.1247 0
 O   O  0.6368    0.8728    0.4556 0
 O   O  0.5910    0.1487    0.7117 0
 O   O  0.5576    0.1820    0.6984 0
 O   O  0.6242    0.1822    0.6976 0
 O   O  0.5910    0.2155    0.7119 0
 O   O  0.7107    0.0337    0.5904 0
 O   O  0.6278    0.2270    0.3186 0
 O   O  0.5540    0.2275    0.3173 0
 O   O  0.3185    0.9547    0.4468 0
 O   O  0.3202    0.9554    0.3729 0
 O   O  0.6820    0.1372    0.4464 0
 O   O  0.6812    0.1372    0.3728 0
 O   O  0.2582    0.0340    0.6808 0
 O   O  0.6445    0.0463    0.2281 0
 O   O  0.7183    0.0466    0.7711 0
 O   O  0.6360    0.9639    0.7261 0
 O   O  0.5460    0.2731    0.0362 0
 O   O  0.7726    0.7190    0.1360 0
 O   O  0.8522    0.6819    0.2571 0
 O   O  0.8642    0.6450    0.2271 0
 O   O  0.2862    0.2425    0.8186 0
 O   O  0.3488    0.5901    0.0576 0
 O   O  0.4104    0.4628    0.0461 0
Si  Si  0.0684    0.9723    0.4717 0
Si  Si  0.1584    0.8824    0.5628 0
Si  Si  0.1534    0.7503    0.2903 0
Si  Si  0.8878    0.9718    0.5630 0
Si  Si  0.0617    0.1593    0.5626 0
Si  Si  0.9720    0.7115    0.9318 0
Si  Si  0.9716    0.7447    0.8863 0
Si  Si  0.9717    0.8019    0.8858 0
Si  Si  0.9718    0.8353    0.9315 0
Si  Si  0.9720    0.8921    0.9317 0
Si  Si  0.7441    0.8415    0.8810 0
Si  Si  0.8407    0.8009    0.9376 0
Si  Si  0.8008    0.8413    0.8810 0
Si  Si  0.9382    0.8411    0.7435 0
Si  Si  0.8820    0.3810    0.1584 0
Si  Si  0.9720    0.3465    0.9319 0
Si  Si  0.9716    0.3808    0.8872 0
Si  Si  0.1592    0.3808    0.0616 0
Si  Si  0.0624    0.6534    0.2051 0
Si  Si  0.1195    0.7107    0.2048 0
Si  Si  0.1195    0.6536    0.2042 0
Si  Si  0.2041    0.5290    0.0618 0
Si  Si  0.2034    0.4721    0.1190 0
Si  Si  0.7510    0.5288    0.2092 0
Si  Si  0.7511    0.5292    0.1523 0
Si  Si  0.7949    0.7105    0.9378 0
 O   O  0.9560    0.1368    0.5549 0
 O   O  0.0575    0.8341    0.5913 0
 O   O  0.8335    0.8785    0.5911 0
 O   O  0.8949    0.9670    0.5915 0
 O   O  0.9630    0.7287    0.9096 0
 O   O  0.9670    0.7734    0.8927 0
 O   O  0.9631    0.8184    0.9088 0
 O   O  0.9679    0.8638    0.9237 0
 O   O  0.9686    0.3181    0.9234 0
 O   O  0.7389    0.8484    0.9095 0
 O   O  0.8770    0.8333    0.7722 0
 O   O  0.9095    0.8052    0.8490 0
 O   O  0.8337    0.7725    0.9426 0
 O   O  0.2647    0.1372    0.9549 0
 O   O  0.1908    0.1381    0.9552 0
 O   O  0.9626    0.3639    0.9098 0
 O   O  0.8488    0.9107    0.6247 0
 O   O  0.1367    0.3728    0.9556 0
 O   O  0.0911    0.6487    0.2117 0
 O   O  0.0576    0.6820    0.1984 0
 O   O  0.1242    0.6822    0.1977 0
 O   O  0.0911    0.7155    0.2120 0
 O   O  0.2107    0.5337    0.0904 0
 O   O  0.1278    0.7269    0.8186 0
 O   O  0.0540    0.7275    0.8173 0
 O   O  0.8185    0.4547    0.9468 0
 O   O  0.8202    0.4554    0.8729 0
 O   O  0.1820    0.6372    0.9464 0
 O   O  0.1812    0.6372    0.8729 0
 O   O  0.7583    0.5340    0.1808 0
 O   O  0.1445    0.5462    0.7281 0
 O   O  0.2183    0.5466    0.2711 0
 O   O  0.1359    0.4639    0.2261 0
 O   O  0.0460    0.7731    0.5362 0
 O   O  0.2726    0.2190    0.6360 0
 O   O  0.3522    0.1819    0.7571 0
 O   O  0.3642    0.1450    0.7271 0
 O   O  0.7863    0.7425    0.3186 0
 O   O  0.8488    0.0901    0.5576 0
 O   O  0.9104    0.9628    0.5461 0
Si  Si  0.0286    0.4324    0.4718 0
Si  Si  0.9375    0.3424    0.3819 0
Si  Si  0.2099    0.3475    0.2497 0
Si  Si  0.9373    0.6130    0.4713 0
Si  Si  0.9376    0.4391    0.6588 0
Si  Si  0.5685    0.5288    0.2109 0
Si  Si  0.6139    0.5292    0.2442 0
Si  Si  0.6144    0.5291    0.3014 0
Si  Si  0.5687    0.5290    0.3348 0
Si  Si  0.5686    0.5288    0.3916 0
Si  Si  0.6192    0.7568    0.3409 0
Si  Si  0.5627    0.6602    0.3004 0
Si  Si  0.6193    0.7000    0.3408 0
Si  Si  0.7568    0.5625    0.3405 0
Si  Si  0.3418    0.6188    0.8805 0
Si  Si  0.5684    0.5288    0.8459 0
Si  Si  0.6129    0.5292    0.8803 0
Si  Si  0.4386    0.3416    0.8802 0
Si  Si  0.2952    0.4384    0.1529 0
Si  Si  0.2955    0.3813    0.2101 0
Si  Si  0.2960    0.3813    0.1530 0
Si  Si  0.4384    0.2967    0.0284 0
Si  Si  0.3812    0.2974    0.9716 0
Si  Si  0.2911    0.7498    0.0282 0
Si  Si  0.3479    0.7497    0.0286 0
Si  Si  0.5624    0.7059    0.2100 0
 O   O  0.9453    0.5448    0.6363 0
 O   O  0.9090    0.4433    0.3335 0
 O   O  0.9091    0.6673    0.3779 0
 O   O  0.9088    0.6059    0.4665 0
 O   O  0.5907    0.5379    0.2282 0
 O   O  0.6075    0.5339    0.2729 0
 O   O  0.5914    0.5378    0.3179 0
 O   O  0.5766    0.5329    0.3632 0
 O   O  0.5769    0.5322    0.8176 0
 O   O  0.5907    0.7619    0.3478 0
 O   O  0.7281    0.6238    0.3327 0
 O   O  0.6513    0.5912    0.3046 0
 O   O  0.5576    0.6672    0.2720 0
 O   O  0.5453    0.2360    0.6366 0
 O   O  0.5451    0.3100    0.6376 0
 O   O  0.5904    0.5382    0.8633 0
 O   O  0.8755    0.6520    0.4102 0
 O   O  0.5446    0.3640    0.8723 0
 O   O  0.2886    0.4097    0.1482 0
 O   O  0.3019    0.4432    0.1815 0
 O   O  0.3026    0.3766    0.1817 0
 O   O  0.2883    0.4097    0.2149 0
 O   O  0.4098    0.2901    0.0331 0
 O   O  0.6816    0.3729    0.2264 0
 O   O  0.6830    0.4468    0.2270 0
 O   O  0.5534    0.6823    0.9542 0
 O   O  0.6274    0.6806    0.9549 0
 O   O  0.5539    0.3188    0.1367 0
 O   O  0.6274    0.3196    0.1366 0
 O   O  0.3194    0.7425    0.0334 0
 O   O  0.7722    0.3563    0.0457 0
 O   O  0.2292    0.2825    0.0460 0
 O   O  0.2741    0.3648    0.9634 0
 O   O  0.9640    0.4548    0.2725 0
 O   O  0.8642    0.2282    0.7184 0
 O   O  0.7431    0.1485    0.6813 0
 O   O  0.7731    0.1365    0.6445 0
 O   O  0.1816    0.7146    0.2419 0
 O   O  0.9426    0.6519    0.5896 0
 O   O  0.9541    0.5904    0.4623 0
Si  Si  0.5286    0.9324    0.9718 0
Si  Si  0.4375    0.8424    0.8819 0
Si  Si  0.7099    0.8475    0.7498 0
Si  Si  0.4372    0.1130    0.9713 0
Si  Si  0.4376    0.9391    0.1588 0
Si  Si  0.0684    0.0287    0.7109 0
Si  Si  0.1139    0.0292    0.7442 0
Si  Si  0.1144    0.0291    0.8014 0
Si  Si  0.0687    0.0290    0.8348 0
Si  Si  0.0686    0.0288    0.8916 0
Si  Si  0.1192    0.2567    0.8409 0
Si  Si  0.0627    0.1601    0.8004 0
Si  Si  0.1192    0.2000    0.8408 0
Si  Si  0.2568    0.0625    0.8405 0
Si  Si  0.8418    0.1188    0.3805 0
Si  Si  0.0684    0.0288    0.3459 0
Si  Si  0.1129    0.0293    0.3803 0
Si  Si  0.9386    0.8416    0.3803 0
Si  Si  0.7952    0.9384    0.6529 0
Si  Si  0.7955    0.8812    0.7101 0
Si  Si  0.7960    0.8813    0.6530 0
Si  Si  0.9384    0.7967    0.5284 0
Si  Si  0.8812    0.7974    0.4716 0
Si  Si  0.7911    0.2497    0.5282 0
Si  Si  0.8479    0.2497    0.5286 0
Si  Si  0.0624    0.2059    0.7100 0
 O   O  0.4453    0.0448    0.1363 0
 O   O  0.4089    0.9433    0.8336 0
 O   O  0.4091    0.1672    0.8780 0
 O   O  0.4087    0.1059    0.9665 0
 O   O  0.0906    0.0379    0.7282 0
 O   O  0.1075    0.0339    0.7729 0
 O   O  0.0914    0.0377    0.8179 0
 O   O  0.0766    0.0329    0.8632 0
 O   O  0.0769    0.0322    0.3176 0
 O   O  0.0907    0.2619    0.8478 0
 O   O  0.2281    0.1238    0.8327 0
 O   O  0.1513    0.0912    0.8046 0
 O   O  0.0576    0.1672    0.7720 0
 O   O  0.0454    0.7360    0.1366 0
 O   O  0.0451    0.8100    0.1376 0
 O   O  0.0904    0.0382    0.3633 0
 O   O  0.3755    0.1519    0.9101 0
 O   O  0.0446    0.8640    0.3724 0
 O   O  0.7886    0.9097    0.6482 0
 O   O  0.8019    0.9432    0.6815 0
 O   O  0.8026    0.8766    0.6817 0
 O   O  0.7883    0.9097    0.7149 0
 O   O  0.9098    0.7901    0.5331 0
 O   O  0.1816    0.8729    0.7264 0
 O   O  0.1830    0.9468    0.7270 0
 O   O  0.0534    0.1823    0.4542 0
 O   O  0.1274    0.1806    0.4549 0
 O   O  0.0539    0.8187    0.6367 0
 O   O  0.1274    0.8196    0.6366 0
 O   O  0.8194    0.2425    0.5334 0
 O   O  0.2722    0.8563    0.5457 0
 O   O  0.7292    0.7825    0.5461 0
 O   O  0.7741    0.8649    0.4634 0
 O   O  0.4640    0.9547    0.7725 0
 O   O  0.3642    0.7282    0.2184 0
 O   O  0.2431    0.6485    0.1813 0
 O   O  0.2731    0.6365    0.1445 0
 O   O  0.6816    0.2146    0.7419 0
 O   O  0.4426    0.1519    0.0896 0
 O   O  0.4541    0.0904    0.9623 0
Si  Si  0.9719    0.4324    0.5282 0
Si  Si  0.0630    0.3425    0.6181 0
Si  Si  0.7905    0.3475    0.7503 0
Si  Si  0.0632    0.6130    0.5286 0
Si  Si  0.0629    0.4391    0.3412 0
Si  Si  0.4320    0.5288    0.7891 0
Si  Si  0.3865    0.5292    0.7558 0
Si  Si  0.3861    0.5291    0.6986 0
Si  Si  0.4317    0.5290    0.6652 0
Si  Si  0.4319    0.5288    0.6084 0
Si  Si  0.3813    0.7567    0.6591 0
Si  Si  0.4378    0.6601    0.6996 0
Si  Si  0.3812    0.7000    0.6592 0
Si  Si  0.2437    0.5625    0.6595 0
Si  Si  0.6587    0.6188    0.1195 0
Si  Si  0.4321    0.5288    0.1541 0
Si  Si  0.3875    0.5292    0.1197 0
Si  Si  0.5619    0.3416    0.1197 0
Si  Si  0.7053    0.4384    0.8471 0
Si  Si  0.7050    0.3812    0.7899 0
Si  Si  0.7044    0.3813    0.8470 0
Si  Si  0.5621    0.2967    0.9716 0
Si  Si  0.6193    0.2974    0.0284 0
Si  Si  0.7094    0.7498    0.9718 0
Si  Si  0.6526    0.7497    0.9714 0
Si  Si  0.4380    0.7059    0.7900 0
 O   O  0.0551    0.5448    0.3637 0
 O   O  0.0915    0.4433    0.6664 0
 O   O  0.0914    0.6673    0.6220 0
 O   O  0.0917    0.6059    0.5335 0
 O   O  0.4098    0.5379    0.7718 0
 O   O  0.3930    0.5339    0.7271 0
 O   O  0.4091    0.5378    0.6821 0
 O   O  0.4239    0.5329    0.6368 0
 O   O  0.4236    0.5323    0.1824 0
 O   O  0.4098    0.7619    0.6522 0
 O   O  0.2724    0.6238    0.6673 0
 O   O  0.3491    0.5912    0.6954 0
 O   O  0.4428    0.6672    0.7280 0
 O   O  0.4551    0.2360    0.3634 0
 O   O  0.4554    0.3100    0.3624 0
 O   O  0.4101    0.5382    0.1367 0
 O   O  0.1249    0.6519    0.5898 0
 O   O  0.4559    0.3640    0.1276 0
 O   O  0.7118    0.4097    0.8518 0
 O   O  0.6986    0.4432    0.8185 0
 O   O  0.6978    0.3765    0.8183 0
 O   O  0.7121    0.4098    0.7851 0
 O   O  0.5906    0.2900    0.9669 0
 O   O  0.3188    0.3729    0.7736 0
 O   O  0.3175    0.4468    0.7730 0
 O   O  0.4471    0.6823    0.0458 0
 O   O  0.3731    0.6806    0.0451 0
 O   O  0.4466    0.3188    0.8633 0
 O   O  0.3731    0.3196    0.8634 0
 O   O  0.6810    0.7425    0.9666 0
 O   O  0.2283    0.3563    0.9543 0
 O   O  0.7713    0.2825    0.9539 0
 O   O  0.7264    0.3649    0.0366 0
 O   O  0.0364    0.4548    0.7275 0
 O   O  0.1363    0.2282    0.2816 0
 O   O  0.2574    0.1485    0.3187 0
 O   O  0.2274    0.1365    0.3555 0
 O   O  0.8188    0.7146    0.7581 0
 O   O  0.0578    0.6519    0.4104 0
 O   O  0.0464    0.5904    0.5377 0
Si  Si  0.4719    0.9324    0.0282 0
Si  Si  0.5630    0.8425    0.1181 0
Si  Si  0.2906    0.8475    0.2502 0
Si  Si  0.5632    0.1130    0.0287 0
Si  Si  0.5628    0.9391    0.8412 0
Si  Si  0.9320    0.0288    0.2891 0
Si  Si  0.8865    0.0292    0.2557 0
Si  Si  0.8861    0.0291    0.1986 0
Si  Si  0.9317    0.0290    0.1652 0
Si  Si  0.9319    0.0288    0.1084 0
Si  Si  0.8813    0.2568    0.1590 0
Si  Si  0.9378    0.1602    0.1996 0
Si  Si  0.8812    0.2000    0.1592 0
Si  Si  0.7437    0.0626    0.1595 0
Si  Si  0.1586    0.1188    0.6195 0
Si  Si  0.9320    0.0288    0.6541 0
Si  Si  0.8875    0.0292    0.6197 0
Si  Si  0.0619    0.8416    0.6197 0
Si  Si  0.2053    0.9384    0.3471 0
Si  Si  0.2050    0.8812    0.2899 0
Si  Si  0.2044    0.8813    0.3470 0
Si  Si  0.0621    0.7967    0.4716 0
Si  Si  0.1192    0.7974    0.5284 0
Si  Si  0.2094    0.2497    0.4718 0
Si  Si  0.1526    0.2497    0.4714 0
Si  Si  0.9380    0.2059    0.2900 0
 O   O  0.5551    0.0448    0.8637 0
 O   O  0.5915    0.9434    0.1664 0
 O   O  0.5914    0.1673    0.1220 0
 O   O  0.5917    0.1059    0.0335 0
 O   O  0.9098    0.0379    0.2718 0
 O   O  0.8930    0.0339    0.2271 0
 O   O  0.9091    0.0378    0.1821 0
 O   O  0.9239    0.0329    0.1368 0
 O   O  0.9236    0.0322    0.6824 0
 O   O  0.9097    0.2619    0.1522 0
 O   O  0.7724    0.1238    0.1673 0
 O   O  0.8492    0.0912    0.1954 0
 O   O  0.9428    0.1672    0.2280 0
 O   O  0.9551    0.7359    0.8634 0
 O   O  0.9554    0.8100    0.8625 0
 O   O  0.9101    0.0382    0.6367 0
 O   O  0.6249    0.1520    0.0898 0
 O   O  0.9559    0.8640    0.6276 0
 O   O  0.2119    0.9097    0.3518 0
 O   O  0.1986    0.9432    0.3185 0
 O   O  0.1978    0.8766    0.3183 0
 O   O  0.2121    0.9098    0.2852 0
 O   O  0.0907    0.7901    0.4669 0
 O   O  0.8188    0.8729    0.2736 0
 O   O  0.8175    0.9468    0.2730 0
 O   O  0.9470    0.1823    0.5458 0
 O   O  0.8731    0.1806    0.5451 0
 O   O  0.9466    0.8188    0.3633 0
 O   O  0.8731    0.8196    0.3634 0
 O   O  0.1810    0.2425    0.4666 0
 O   O  0.7283    0.8563    0.4543 0
 O   O  0.2713    0.7825    0.4539 0
 O   O  0.2264    0.8648    0.5366 0
 O   O  0.5365    0.9548    0.2275 0
 O   O  0.6363    0.7282    0.7816 0
 O   O  0.7574    0.6485    0.8187 0
 O   O  0.7274    0.6365    0.8555 0
 O   O  0.3189    0.2146    0.2581 0
 O   O  0.5578    0.1519    0.9104 0
 O   O  0.5464    0.0904    0.0377 0
Si  Si  0.0286    0.5687    0.5282 0
Si  Si  0.9375    0.6586    0.6181 0
Si  Si  0.2099    0.6536    0.7503 0
Si  Si  0.9373    0.3881    0.5286 0
Si  Si  0.9376    0.5620    0.3412 0
Si  Si  0.5685    0.4723    0.7891 0
Si  Si  0.6139    0.4719    0.7558 0
Si  Si  0.6144    0.4720    0.6986 0
Si  Si  0.5687    0.4721    0.6652 0
Si  Si  0.5686    0.4723    0.6084 0
Si  Si  0.6192    0.2443    0.6591 0
Si  Si  0.5627    0.3409    0.6996 0
Si  Si  0.6192    0.3011    0.6592 0
Si  Si  0.7568    0.4385    0.6595 0
Si  Si  0.3418    0.3823    0.1195 0
Si  Si  0.5684    0.4723    0.1541 0
Si  Si  0.6130    0.4718    0.1197 0
Si  Si  0.4386    0.6595    0.1197 0
Si  Si  0.2951    0.5627    0.8471 0
Si  Si  0.2955    0.6198    0.7899 0
Si  Si  0.2960    0.6198    0.8470 0
Si  Si  0.4384    0.7044    0.9716 0
Si  Si  0.3812    0.7037    0.0284 0
Si  Si  0.2911    0.2513    0.9718 0
Si  Si  0.3479    0.2514    0.9714 0
Si  Si  0.5624    0.2952    0.7900 0
 O   O  0.9453    0.4563    0.3637 0
 O   O  0.9090    0.5577    0.6664 0
 O   O  0.9091    0.3338    0.6220 0
 O   O  0.9088    0.3952    0.5335 0
 O   O  0.5907    0.4632    0.7718 0
 O   O  0.6075    0.4672    0.7271 0
 O   O  0.5914    0.4633    0.6821 0
 O   O  0.5766    0.4682    0.6368 0
 O   O  0.5769    0.4688    0.1824 0
 O   O  0.5907    0.2392    0.6522 0
 O   O  0.7281    0.3773    0.6673 0
 O   O  0.6513    0.4099    0.6954 0
 O   O  0.5576    0.3339    0.7280 0
 O   O  0.5454    0.7651    0.3634 0
 O   O  0.5451    0.6911    0.3624 0
 O   O  0.5904    0.4629    0.1367 0
 O   O  0.8755    0.3491    0.5898 0
 O   O  0.5446    0.6371    0.1276 0
 O   O  0.2886    0.5914    0.8518 0
 O   O  0.3019    0.5579    0.8185 0
 O   O  0.3026    0.6245    0.8183 0
 O   O  0.2883    0.5913    0.7851 0
 O   O  0.4098    0.7110    0.9669 0
 O   O  0.6816    0.6281    0.7736 0
 O   O  0.6830    0.5543    0.7730 0
 O   O  0.5534    0.3188    0.0458 0
 O   O  0.6274    0.3205    0.0451 0
 O   O  0.5539    0.6823    0.8633 0
 O   O  0.6274    0.6815    0.8634 0
 O   O  0.3194    0.2586    0.9666 0
 O   O  0.7722    0.6448    0.9543 0
 O   O  0.2291    0.7186    0.9539 0
 O   O  0.2741    0.6363    0.0366 0
 O   O  0.9640    0.5463    0.7275 0
 O   O  0.8642    0.7729    0.2816 0
 O   O  0.7431    0.8526    0.3187 0
 O   O  0.7731    0.8646    0.3555 0
 O   O  0.1816    0.2865    0.7581 0
 O   O  0.9426    0.3492    0.4104 0
 O   O  0.9541    0.4107    0.5377 0
Si  Si  0.5286    0.0687    0.0282 0
Si  Si  0.4375    0.1586    0.1181 0
Si  Si  0.7099    0.1536    0.2502 0
Si  Si  0.4373    0.8881    0.0287 0
Si  Si  0.4376    0.0620    0.8412 0
Si  Si  0.0685    0.9723    0.2891 0
Si  Si  0.1139    0.9719    0.2557 0
Si  Si  0.1144    0.9720    0.1986 0
Si  Si  0.0687    0.9721    0.1652 0
Si  Si  0.0686    0.9723    0.1084 0
Si  Si  0.1192    0.7443    0.1590 0
Si  Si  0.0627    0.8409    0.1996 0
Si  Si  0.1193    0.8011    0.1592 0
Si  Si  0.2568    0.9385    0.1595 0
Si  Si  0.8418    0.8822    0.6195 0
Si  Si  0.0684    0.9723    0.6541 0
Si  Si  0.1129    0.9718    0.6197 0
Si  Si  0.9386    0.1595    0.6197 0
Si  Si  0.7952    0.0627    0.3471 0
Si  Si  0.7955    0.1198    0.2899 0
Si  Si  0.7960    0.1198    0.3470 0
Si  Si  0.9384    0.2044    0.4716 0
Si  Si  0.8812    0.2037    0.5284 0
Si  Si  0.7911    0.7513    0.4718 0
Si  Si  0.8479    0.7514    0.4714 0
Si  Si  0.0624    0.7952    0.2900 0
 O   O  0.4453    0.9563    0.8637 0
 O   O  0.4090    0.0578    0.1664 0
 O   O  0.4091    0.8338    0.1220 0
 O   O  0.4088    0.8952    0.0335 0
 O   O  0.0907    0.9632    0.2718 0
 O   O  0.1075    0.9672    0.2271 0
 O   O  0.0914    0.9633    0.1821 0
 O   O  0.0766    0.9682    0.1368 0
 O   O  0.0769    0.9688    0.6824 0
 O   O  0.0907    0.7392    0.1522 0
 O   O  0.2281    0.8773    0.1673 0
 O   O  0.1513    0.9099    0.1954 0
 O   O  0.0577    0.8339    0.2280 0
 O   O  0.0453    0.2651    0.8634 0
 O   O  0.0450    0.1911    0.8624 0
 O   O  0.0904    0.9629    0.6367 0
 O   O  0.3756    0.8492    0.0898 0
 O   O  0.0446    0.1371    0.6276 0
 O   O  0.7886    0.0914    0.3518 0
 O   O  0.8019    0.0579    0.3185 0
 O   O  0.8026    0.1245    0.3183 0
 O   O  0.7883    0.0914    0.2851 0
 O   O  0.9098    0.2111    0.4669 0
 O   O  0.1816    0.1282    0.2736 0
 O   O  0.1830    0.0543    0.2730 0
 O   O  0.0534    0.8188    0.5458 0
 O   O  0.1274    0.8205    0.5451 0
 O   O  0.0539    0.1823    0.3633 0
 O   O  0.1274    0.1815    0.3634 0
 O   O  0.8194    0.7586    0.4666 0
 O   O  0.2722    0.1448    0.4543 0
 O   O  0.7292    0.2186    0.4539 0
 O   O  0.7741    0.1362    0.5365 0
 O   O  0.4640    0.0463    0.2275 0
 O   O  0.3642    0.2729    0.7816 0
 O   O  0.2430    0.3526    0.8187 0
 O   O  0.2731    0.3645    0.8555 0
 O   O  0.6816    0.7865    0.2581 0
 O   O  0.4426    0.8492    0.9104 0
 O   O  0.4541    0.9107    0.0377 0
Si  Si  0.9719    0.5687    0.4718 0
Si  Si  0.0630    0.6587    0.3819 0
Si  Si  0.7906    0.6536    0.2497 0
Si  Si  0.0632    0.3881    0.4713 0
Si  Si  0.0629    0.5620    0.6588 0
Si  Si  0.4320    0.4723    0.2109 0
Si  Si  0.3865    0.4719    0.2442 0
Si  Si  0.3861    0.4720    0.3014 0
Si  Si  0.4318    0.4721    0.3348 0
Si  Si  0.4319    0.4723    0.3916 0
Si  Si  0.3813    0.2443    0.3409 0
Si  Si  0.4378    0.3409    0.3004 0
Si  Si  0.3812    0.3011    0.3408 0
Si  Si  0.2437    0.4386    0.3405 0
Si  Si  0.6586    0.3822    0.8805 0
Si  Si  0.4320    0.4723    0.8459 0
Si  Si  0.3875    0.4718    0.8803 0
Si  Si  0.5619    0.6595    0.8803 0
Si  Si  0.7053    0.5627    0.1529 0
Si  Si  0.7050    0.6199    0.2102 0
Si  Si  0.7044    0.6198    0.1530 0
Si  Si  0.5621    0.7044    0.0284 0
Si  Si  0.6192    0.7037    0.9716 0
Si  Si  0.7094    0.2513    0.0282 0
Si  Si  0.6526    0.2514    0.0286 0
Si  Si  0.4380    0.2952    0.2100 0
 O   O  0.0551    0.4563    0.6363 0
 O   O  0.0915    0.5577    0.3335 0
 O   O  0.0914    0.3338    0.3779 0
 O   O  0.0917    0.3952    0.4665 0
 O   O  0.4098    0.4632    0.2282 0
 O   O  0.3930    0.4672    0.2729 0
 O   O  0.4091    0.4633    0.3179 0
 O   O  0.4239    0.4682    0.3632 0
 O   O  0.4236    0.4688    0.8176 0
 O   O  0.4098    0.2392    0.3478 0
 O   O  0.2724    0.3773    0.3327 0
 O   O  0.3492    0.4099    0.3046 0
 O   O  0.4428    0.3339    0.2720 0
 O   O  0.4551    0.7651    0.6366 0
 O   O  0.4554    0.6911    0.6376 0
 O   O  0.4101    0.4629    0.8633 0
 O   O  0.1249    0.3491    0.4102 0
 O   O  0.4559    0.6370    0.8724 0
 O   O  0.7119    0.5914    0.1482 0
 O   O  0.6986    0.5579    0.1815 0
 O   O  0.6978    0.6246    0.1817 0
 O   O  0.7121    0.5914    0.2149 0
 O   O  0.5907    0.7110    0.0331 0
 O   O  0.3189    0.6282    0.2264 0
 O   O  0.3175    0.5543    0.2270 0
 O   O  0.4470    0.3188    0.9542 0
 O   O  0.3731    0.3205    0.9549 0
 O   O  0.4466    0.6824    0.1367 0
 O   O  0.3731    0.6815    0.1366 0
 O   O  0.6810    0.2586    0.0334 0
 O   O  0.2283    0.6448    0.0457 0
 O   O  0.7713    0.7186    0.0461 0
 O   O  0.7264    0.6362    0.9634 0
 O   O  0.0364    0.5463    0.2725 0
 O   O  0.1362    0.7729    0.7184 0
 O   O  0.2574    0.8526    0.6813 0
 O   O  0.2274    0.8646    0.6445 0
 O   O  0.8188    0.2865    0.2419 0
 O   O  0.0578    0.3492    0.5896 0
 O   O  0.0464    0.4107    0.4623 0
Si  Si  0.4719    0.0687    0.9718 0
Si  Si  0.5630    0.1586    0.8819 0
Si  Si  0.2905    0.1536    0.7497 0
Si  Si  0.5632    0.8881    0.9713 0
Si  Si  0.5628    0.0620    0.1588 0
Si  Si  0.9320    0.9723    0.7109 0
Si  Si  0.8865    0.9719    0.7442 0
Si  Si  0.8861    0.9720    0.8014 0
Si  Si  0.9317    0.9721    0.8348 0
Si  Si  0.9319    0.9723    0.8916 0
Si  Si  0.8813    0.7443    0.8409 0
Si  Si  0.9378    0.8409    0.8004 0
Si  Si  0.8812    0.8011    0.8408 0
Si  Si  0.7437    0.9385    0.8405 0
Si  Si  0.1587    0.8822    0.3805 0
Si  Si  0.9321    0.9723    0.3459 0
Si  Si  0.8875    0.9719    0.3803 0
Si  Si  0.0619    0.1595    0.3803 0
Si  Si  0.2053    0.0627    0.6529 0
Si  Si  0.2050    0.1198    0.7101 0
Si  Si  0.2044    0.1198    0.6530 0
Si  Si  0.0621    0.2044    0.5284 0
Si  Si  0.1192    0.2037    0.4716 0
Si  Si  0.2094    0.7513    0.5282 0
Si  Si  0.1526    0.7514    0.5286 0
Si  Si  0.9380    0.7952    0.7100 0
 O   O  0.5552    0.9563    0.1363 0
 O   O  0.5915    0.0578    0.8336 0
 O   O  0.5914    0.8338    0.8780 0
 O   O  0.5917    0.8952    0.9665 0
 O   O  0.9098    0.9632    0.7282 0
 O   O  0.8930    0.9672    0.7729 0
 O   O  0.9091    0.9633    0.8179 0
 O   O  0.9239    0.9682    0.8632 0
 O   O  0.9236    0.9688    0.3176 0
 O   O  0.9097    0.7392    0.8478 0
 O   O  0.7724    0.8773    0.8327 0
 O   O  0.8492    0.9099    0.8046 0
 O   O  0.9428    0.8339    0.7720 0
 O   O  0.9551    0.2651    0.1366 0
 O   O  0.9554    0.1911    0.1376 0
 O   O  0.9101    0.9629    0.3633 0
 O   O  0.6249    0.8491    0.9102 0
 O   O  0.9559    0.1371    0.3724 0
 O   O  0.2118    0.0914    0.6482 0
 O   O  0.1986    0.0579    0.6815 0
 O   O  0.1978    0.1245    0.6816 0
 O   O  0.2121    0.0914    0.7148 0
 O   O  0.0907    0.2110    0.5331 0
 O   O  0.8188    0.1282    0.7264 0
 O   O  0.8175    0.0543    0.7270 0
 O   O  0.9471    0.8188    0.4542 0
 O   O  0.8731    0.8205    0.4549 0
 O   O  0.9466    0.1823    0.6367 0
 O   O  0.8731    0.1815    0.6366 0
 O   O  0.1810    0.7586    0.5334 0
 O   O  0.7283    0.1448    0.5457 0
 O   O  0.2713    0.2186    0.5461 0
 O   O  0.2263    0.1363    0.4634 0
 O   O  0.5364    0.0463    0.7725 0
 O   O  0.6363    0.2729    0.2184 0
 O   O  0.7574    0.3526    0.1813 0
 O   O  0.7274    0.3646    0.1445 0
 O   O  0.3188    0.7865    0.7419 0
 O   O  0.5578    0.8492    0.0896 0
 O   O  0.5464    0.9107    0.9623 0
Si  Si  0.0284    0.4722    0.5683 0
Si  Si  0.9374    0.3823    0.6582 0
Si  Si  0.2100    0.2504    0.6532 0
Si  Si  0.9374    0.4720    0.3874 0
Si  Si  0.9375    0.6595    0.5613 0
Si  Si  0.5685    0.2114    0.4717 0
Si  Si  0.6141    0.2446    0.4715 0
Si  Si  0.6143    0.3018    0.4714 0
Si  Si  0.5686    0.3352    0.4717 0
Si  Si  0.5686    0.3920    0.4717 0
Si  Si  0.6191    0.3416    0.2437 0
Si  Si  0.5628    0.3011    0.3405 0
Si  Si  0.6193    0.3412    0.3004 0
Si  Si  0.7567    0.3409    0.4380 0
Si  Si  0.3418    0.8811    0.3816 0
Si  Si  0.5685    0.8464    0.4717 0
Si  Si  0.6131    0.8807    0.4714 0
Si  Si  0.4387    0.8809    0.6591 0
Si  Si  0.2953    0.1535    0.5621 0
Si  Si  0.2956    0.2106    0.6194 0
Si  Si  0.2959    0.1535    0.6191 0
Si  Si  0.4383    0.0291    0.7041 0
Si  Si  0.3813    0.9720    0.7033 0
Si  Si  0.2912    0.0289    0.2509 0
Si  Si  0.3480    0.0291    0.2507 0
Si  Si  0.5625    0.2107    0.2945 0
 O   O  0.9453    0.6365    0.4555 0
 O   O  0.9091    0.3341    0.5573 0
 O   O  0.9092    0.3785    0.3333 0
 O   O  0.9089    0.4670    0.3946 0
 O   O  0.5909    0.2285    0.4627 0
 O   O  0.6075    0.2733    0.4667 0
 O   O  0.5912    0.3182    0.4629 0
 O   O  0.5765    0.3636    0.4677 0
 O   O  0.5767    0.8180    0.4683 0
 O   O  0.5906    0.3484    0.2387 0
 O   O  0.7282    0.3332    0.3768 0
 O   O  0.6512    0.3052    0.4092 0
 O   O  0.5576    0.2726    0.3334 0
 O   O  0.5451    0.6374    0.7645 0
 O   O  0.5453    0.6379    0.6906 0
 O   O  0.5907    0.8636    0.4624 0
 O   O  0.8755    0.4105    0.3485 0
 O   O  0.5449    0.8728    0.6362 0
 O   O  0.2886    0.1487    0.5907 0
 O   O  0.3018    0.1822    0.5574 0
 O   O  0.3025    0.1821    0.6239 0
 O   O  0.2883    0.2154    0.5909 0
 O   O  0.4096    0.0337    0.7105 0
 O   O  0.6818    0.2272    0.6276 0
 O   O  0.6827    0.2273    0.5538 0
 O   O  0.5534    0.9550    0.3185 0
 O   O  0.6274    0.9552    0.3196 0
 O   O  0.5538    0.1370    0.6821 0
 O   O  0.6273    0.1374    0.6807 0
 O   O  0.3196    0.0340    0.2580 0
 O   O  0.7724    0.0460    0.6443 0
 O   O  0.2289    0.0464    0.7180 0
 O   O  0.2738    0.9639    0.6354 0
 O   O  0.9640    0.2733    0.5455 0
 O   O  0.8644    0.7190    0.7721 0
 O   O  0.7432    0.6817    0.8520 0
 O   O  0.7734    0.6450    0.8638 0
 O   O  0.1818    0.2425    0.2860 0
 O   O  0.9427    0.5903    0.3486 0
 O   O  0.9544    0.4628    0.4098 0
Si  Si  0.5285    0.9722    0.0683 0
Si  Si  0.4374    0.8823    0.1582 0
Si  Si  0.7100    0.7504    0.1532 0
Si  Si  0.4374    0.9719    0.8874 0
Si  Si  0.4375    0.1595    0.0613 0
Si  Si  0.0685    0.7114    0.9717 0
Si  Si  0.1141    0.7446    0.9715 0
Si  Si  0.1143    0.8018    0.9714 0
Si  Si  0.0686    0.8352    0.9717 0
Si  Si  0.0686    0.8920    0.9717 0
Si  Si  0.1191    0.8416    0.7438 0
Si  Si  0.0627    0.8011    0.8405 0
Si  Si  0.1193    0.8412    0.8004 0
Si  Si  0.2566    0.8409    0.9380 0
Si  Si  0.8418    0.3811    0.8816 0
Si  Si  0.0685    0.3464    0.9717 0
Si  Si  0.1131    0.3807    0.9714 0
Si  Si  0.9387    0.3809    0.1591 0
Si  Si  0.7953    0.6535    0.0621 0
Si  Si  0.7956    0.7106    0.1193 0
Si  Si  0.7959    0.6535    0.1192 0
Si  Si  0.9383    0.5291    0.2041 0
Si  Si  0.8813    0.4720    0.2033 0
Si  Si  0.7912    0.5289    0.7509 0
Si  Si  0.8480    0.5290    0.7507 0
Si  Si  0.0625    0.7106    0.7945 0
 O   O  0.4453    0.1365    0.9555 0
 O   O  0.4092    0.8341    0.0572 0
 O   O  0.4092    0.8785    0.8333 0
 O   O  0.4089    0.9670    0.8946 0
 O   O  0.0909    0.7285    0.9627 0
 O   O  0.1075    0.7733    0.9667 0
 O   O  0.0912    0.8182    0.9629 0
 O   O  0.0765    0.8636    0.9677 0
 O   O  0.0767    0.3180    0.9684 0
 O   O  0.0906    0.8484    0.7387 0
 O   O  0.2282    0.8332    0.8768 0
 O   O  0.1512    0.8052    0.9092 0
 O   O  0.0576    0.7726    0.8334 0
 O   O  0.0451    0.1374    0.2645 0
 O   O  0.0453    0.1379    0.1906 0
 O   O  0.0907    0.3636    0.9624 0
 O   O  0.3755    0.9105    0.8485 0
 O   O  0.0449    0.3728    0.1362 0
 O   O  0.7886    0.6487    0.0907 0
 O   O  0.8019    0.6822    0.0574 0
 O   O  0.8026    0.6821    0.1240 0
 O   O  0.7883    0.7155    0.0909 0
 O   O  0.9097    0.5337    0.2105 0
 O   O  0.1818    0.7272    0.1276 0
 O   O  0.1827    0.7273    0.0538 0
 O   O  0.0533    0.4550    0.8185 0
 O   O  0.1274    0.4552    0.8196 0
 O   O  0.0539    0.6370    0.1821 0
 O   O  0.1274    0.6374    0.1807 0
 O   O  0.8196    0.5340    0.7580 0
 O   O  0.2724    0.5460    0.1443 0
 O   O  0.7289    0.5464    0.2181 0
 O   O  0.7739    0.4639    0.1355 0
 O   O  0.4641    0.7734    0.0455 0
 O   O  0.3644    0.2190    0.2721 0
 O   O  0.2432    0.1817    0.3520 0
 O   O  0.2734    0.1450    0.3638 0
 O   O  0.6818    0.7425    0.7860 0
 O   O  0.4426    0.0903    0.8486 0
 O   O  0.4544    0.9628    0.9098 0
Si  Si  0.9720    0.5289    0.5683 0
Si  Si  0.0630    0.6188    0.6582 0
Si  Si  0.7904    0.7507    0.6532 0
Si  Si  0.0631    0.5291    0.3874 0
Si  Si  0.0630    0.3416    0.5613 0
Si  Si  0.4320    0.7897    0.4717 0
Si  Si  0.3864    0.7564    0.4715 0
Si  Si  0.3861    0.6992    0.4714 0
Si  Si  0.4319    0.6659    0.4717 0
Si  Si  0.4318    0.6090    0.4717 0
Si  Si  0.3814    0.6595    0.2438 0
Si  Si  0.4377    0.7000    0.3405 0
Si  Si  0.3811    0.6599    0.3004 0
Si  Si  0.2438    0.6602    0.4380 0
Si  Si  0.6587    0.1200    0.3816 0
Si  Si  0.4320    0.1547    0.4717 0
Si  Si  0.3874    0.1204    0.4714 0
Si  Si  0.5618    0.1202    0.6591 0
Si  Si  0.7052    0.8476    0.5621 0
Si  Si  0.7049    0.7905    0.6194 0
Si  Si  0.7046    0.8476    0.6191 0
Si  Si  0.5622    0.9720    0.7041 0
Si  Si  0.6191    0.0291    0.7033 0
Si  Si  0.7093    0.9722    0.2509 0
Si  Si  0.6525    0.9720    0.2507 0
Si  Si  0.4380    0.7904    0.2945 0
 O   O  0.0551    0.3646    0.4554 0
 O   O  0.0913    0.6670    0.5573 0
 O   O  0.0912    0.6226    0.3333 0
 O   O  0.0915    0.5341    0.3946 0
 O   O  0.4096    0.7726    0.4627 0
 O   O  0.3929    0.7278    0.4667 0
 O   O  0.4093    0.6829    0.4629 0
 O   O  0.4239    0.6375    0.4677 0
 O   O  0.4237    0.1831    0.4683 0
 O   O  0.4099    0.6527    0.2387 0
 O   O  0.2723    0.6678    0.3768 0
 O   O  0.3492    0.6959    0.4092 0
 O   O  0.4428    0.7285    0.3334 0
 O   O  0.4553    0.3637    0.7645 0
 O   O  0.4552    0.3632    0.6906 0
 O   O  0.4098    0.1375    0.4624 0
 O   O  0.1249    0.5906    0.3485 0
 O   O  0.4556    0.1283    0.6362 0
 O   O  0.7119    0.8524    0.5907 0
 O   O  0.6986    0.8189    0.5574 0
 O   O  0.6979    0.8190    0.6240 0
 O   O  0.7122    0.7856    0.5909 0
 O   O  0.5908    0.9673    0.7106 0
 O   O  0.3186    0.7739    0.6276 0
 O   O  0.3178    0.7738    0.5538 0
 O   O  0.4471    0.0461    0.3186 0
 O   O  0.3731    0.0459    0.3196 0
 O   O  0.4466    0.8641    0.6821 0
 O   O  0.3731    0.8637    0.6807 0
 O   O  0.6809    0.9671    0.2580 0
 O   O  0.2280    0.9551    0.6443 0
 O   O  0.7715    0.9547    0.7181 0
 O   O  0.7266    0.0372    0.6354 0
 O   O  0.0364    0.7277    0.5455 0
 O   O  0.1360    0.2821    0.7721 0
 O   O  0.2573    0.3194    0.8520 0
 O   O  0.2271    0.3561    0.8637 0
 O   O  0.8187    0.7586    0.2860 0
 O   O  0.0578    0.4108    0.3486 0
 O   O  0.0461    0.5383    0.4098 0
Si  Si  0.4720    0.0289    0.0683 0
Si  Si  0.5631    0.1188    0.1582 0
Si  Si  0.2904    0.2507    0.1532 0
Si  Si  0.5631    0.0291    0.8874 0
Si  Si  0.5630    0.8416    0.0613 0
Si  Si  0.9319    0.2897    0.9717 0
Si  Si  0.8864    0.2564    0.9715 0
Si  Si  0.8861    0.1993    0.9714 0
Si  Si  0.9319    0.1659    0.9717 0
Si  Si  0.9318    0.1090    0.9717 0
Si  Si  0.8813    0.1595    0.7438 0
Si  Si  0.9377    0.2000    0.8405 0
Si  Si  0.8811    0.1599    0.8004 0
Si  Si  0.7438    0.1602    0.9380 0
Si  Si  0.1587    0.6200    0.8816 0
Si  Si  0.9320    0.6547    0.9717 0
Si  Si  0.8873    0.6204    0.9715 0
Si  Si  0.0618    0.6202    0.1591 0
Si  Si  0.2052    0.3476    0.0621 0
Si  Si  0.2049    0.2905    0.1193 0
Si  Si  0.2046    0.3476    0.1191 0
Si  Si  0.0622    0.4720    0.2041 0
Si  Si  0.1191    0.5291    0.2033 0
Si  Si  0.2092    0.4722    0.7509 0
Si  Si  0.1524    0.4720    0.7507 0
Si  Si  0.9379    0.2904    0.7945 0
 O   O  0.5551    0.8646    0.9555 0
 O   O  0.5913    0.1670    0.0572 0
 O   O  0.5912    0.1226    0.8333 0
 O   O  0.5915    0.0341    0.8946 0
 O   O  0.9095    0.2726    0.9627 0
 O   O  0.8929    0.2278    0.9667 0
 O   O  0.9093    0.1829    0.9629 0
 O   O  0.9239    0.1375    0.9677 0
 O   O  0.9237    0.6831    0.9684 0
 O   O  0.9098    0.1527    0.7387 0
 O   O  0.7723    0.1678    0.8768 0
 O   O  0.8492    0.1959    0.9092 0
 O   O  0.9428    0.2285    0.8334 0
 O   O  0.9554    0.8637    0.2645 0
 O   O  0.9552    0.8632    0.1906 0
 O   O  0.9097    0.6375    0.9624 0
 O   O  0.6249    0.0906    0.8485 0
 O   O  0.9556    0.6283    0.1362 0
 O   O  0.2119    0.3524    0.0907 0
 O   O  0.1986    0.3189    0.0574 0
 O   O  0.1979    0.3190    0.1239 0
 O   O  0.2122    0.2856    0.0909 0
 O   O  0.0908    0.4674    0.2105 0
 O   O  0.8187    0.2739    0.1276 0
 O   O  0.8178    0.2738    0.0538 0
 O   O  0.9471    0.5461    0.8185 0
 O   O  0.8731    0.5459    0.8196 0
 O   O  0.9466    0.3641    0.1821 0
 O   O  0.8731    0.3637    0.1807 0
 O   O  0.1808    0.4671    0.7580 0
 O   O  0.7280    0.4551    0.1443 0
 O   O  0.2715    0.4547    0.2181 0
 O   O  0.2266    0.5372    0.1354 0
 O   O  0.5364    0.2278    0.0455 0
 O   O  0.6360    0.7821    0.2721 0
 O   O  0.7573    0.8194    0.3520 0
 O   O  0.7271    0.8561    0.3637 0
 O   O  0.3187    0.2586    0.7860 0
 O   O  0.5578    0.9107    0.8486 0
 O   O  0.5461    0.0383    0.9098 0
Si  Si  0.0284    0.5289    0.4316 0
Si  Si  0.9374    0.6188    0.3418 0
Si  Si  0.2100    0.7507    0.3468 0
Si  Si  0.9374    0.5291    0.6126 0
Si  Si  0.9375    0.3415    0.4387 0
Si  Si  0.5685    0.7897    0.5283 0
Si  Si  0.6141    0.7564    0.5285 0
Si  Si  0.6143    0.6992    0.5286 0
Si  Si  0.5686    0.6659    0.5283 0
Si  Si  0.5686    0.6090    0.5283 0
Si  Si  0.6191    0.6595    0.7563 0
Si  Si  0.5628    0.7000    0.6595 0
Si  Si  0.6193    0.6598    0.6996 0
Si  Si  0.7567    0.6602    0.5619 0
Si  Si  0.3418    0.1200    0.6184 0
Si  Si  0.5685    0.1547    0.5283 0
Si  Si  0.6131    0.1204    0.5286 0
Si  Si  0.4387    0.1202    0.3409 0
Si  Si  0.2953    0.8476    0.4379 0
Si  Si  0.2956    0.7905    0.3806 0
Si  Si  0.2959    0.8476    0.3809 0
Si  Si  0.4383    0.9720    0.2959 0
Si  Si  0.3814    0.0291    0.2967 0
Si  Si  0.2912    0.9722    0.7491 0
Si  Si  0.3480    0.9720    0.7493 0
Si  Si  0.5625    0.7904    0.7055 0
 O   O  0.9453    0.3646    0.5445 0
 O   O  0.9091    0.6670    0.4427 0
 O   O  0.9092    0.6226    0.6667 0
 O   O  0.9089    0.5341    0.6054 0
 O   O  0.5909    0.7726    0.5373 0
 O   O  0.6075    0.7278    0.5333 0
 O   O  0.5912    0.6829    0.5371 0
 O   O  0.5765    0.6375    0.5323 0
 O   O  0.5767    0.1831    0.5317 0
 O   O  0.5906    0.6527    0.7613 0
 O   O  0.7282    0.6678    0.6232 0
 O   O  0.6512    0.6958    0.5908 0
 O   O  0.5576    0.7284    0.6666 0
 O   O  0.5451    0.3637    0.2355 0
 O   O  0.5453    0.3632    0.3094 0
 O   O  0.5907    0.1375    0.5376 0
 O   O  0.8755    0.5905    0.6514 0
 O   O  0.5449    0.1283    0.3638 0
 O   O  0.2886    0.8524    0.4093 0
 O   O  0.3019    0.8189    0.4426 0
 O   O  0.3026    0.8190    0.3761 0
 O   O  0.2883    0.7856    0.4091 0
 O   O  0.4097    0.9674    0.2894 0
 O   O  0.6818    0.7739    0.3724 0
 O   O  0.6827    0.7738    0.4462 0
 O   O  0.5533    0.0460    0.6814 0
 O   O  0.6274    0.0459    0.6804 0
 O   O  0.5539    0.8641    0.3179 0
 O   O  0.6274    0.8637    0.3193 0
 O   O  0.3196    0.9671    0.7420 0
 O   O  0.7724    0.9551    0.3557 0
 O   O  0.2289    0.9547    0.2819 0
 O   O  0.2738    0.0372    0.3645 0
 O   O  0.9640    0.7278    0.4545 0
 O   O  0.8644    0.2821    0.2279 0
 O   O  0.7432    0.3194    0.1480 0
 O   O  0.7734    0.3561    0.1363 0
 O   O  0.1818    0.7586    0.7140 0
 O   O  0.9427    0.4108    0.6514 0
 O   O  0.9544    0.5383    0.5902 0
Si  Si  0.5284    0.0289    0.9317 0
Si  Si  0.4374    0.1188    0.8417 0
Si  Si  0.7100    0.2507    0.8468 0
Si  Si  0.4374    0.0291    0.1126 0
Si  Si  0.4375    0.8415    0.9387 0
Si  Si  0.0685    0.2898    0.0283 0
Si  Si  0.1141    0.2564    0.0285 0
Si  Si  0.1143    0.1993    0.0286 0
Si  Si  0.0686    0.1659    0.0283 0
Si  Si  0.0686    0.1090    0.0283 0
Si  Si  0.1191    0.1595    0.2562 0
Si  Si  0.0628    0.2000    0.1595 0
Si  Si  0.1193    0.1599    0.1995 0
Si  Si  0.2567    0.1602    0.0619 0
Si  Si  0.8418    0.6200    0.1184 0
Si  Si  0.0685    0.6547    0.0283 0
Si  Si  0.1131    0.6204    0.0286 0
Si  Si  0.9387    0.6202    0.8409 0
Si  Si  0.7953    0.3476    0.9379 0
Si  Si  0.7956    0.2905    0.8806 0
Si  Si  0.7959    0.3476    0.8809 0
Si  Si  0.9383    0.4720    0.7959 0
Si  Si  0.8813    0.5291    0.7967 0
Si  Si  0.7912    0.4722    0.2491 0
Si  Si  0.8480    0.4721    0.2493 0
Si  Si  0.0625    0.2904    0.2055 0
 O   O  0.4453    0.8646    0.0445 0
 O   O  0.4091    0.1670    0.9427 0
 O   O  0.4092    0.1226    0.1667 0
 O   O  0.4089    0.0341    0.1054 0
 O   O  0.0909    0.2726    0.0373 0
 O   O  0.1076    0.2278    0.0333 0
 O   O  0.0912    0.1829    0.0371 0
 O   O  0.0765    0.1375    0.0322 0
 O   O  0.0768    0.6831    0.0316 0
 O   O  0.0906    0.1527    0.2613 0
 O   O  0.2282    0.1678    0.1232 0
 O   O  0.1512    0.1959    0.0908 0
 O   O  0.0576    0.2285    0.1666 0
 O   O  0.0451    0.8636    0.7355 0
 O   O  0.0452    0.8632    0.8094 0
 O   O  0.0907    0.6375    0.0376 0
 O   O  0.3755    0.0906    0.1514 0
 O   O  0.0449    0.6283    0.8638 0
 O   O  0.7886    0.3524    0.9093 0
 O   O  0.8018    0.3189    0.9426 0
 O   O  0.8025    0.3190    0.8760 0
 O   O  0.7882    0.2856    0.9091 0
 O   O  0.9097    0.4673    0.7894 0
 O   O  0.1818    0.2739    0.8724 0
 O   O  0.1827    0.2738    0.9462 0
 O   O  0.0534    0.5461    0.1815 0
 O   O  0.1274    0.5459    0.1804 0
 O   O  0.0538    0.3641    0.8179 0
 O   O  0.1273    0.3637    0.8193 0
 O   O  0.8196    0.4671    0.2420 0
 O   O  0.2724    0.4551    0.8557 0
 O   O  0.7289    0.4547    0.7819 0
 O   O  0.7738    0.5372    0.8646 0
 O   O  0.4640    0.2277    0.9545 0
 O   O  0.3644    0.7821    0.7279 0
 O   O  0.2432    0.8194    0.6480 0
 O   O  0.2734    0.8561    0.6362 0
 O   O  0.6818    0.2586    0.2140 0
 O   O  0.4427    0.9108    0.1514 0
 O   O  0.4544    0.0383    0.0902 0
Si  Si  0.9720    0.4722    0.4316 0
Si  Si  0.0631    0.3823    0.3418 0
Si  Si  0.7904    0.2504    0.3468 0
Si  Si  0.0631    0.4720    0.6126 0
Si  Si  0.0630    0.6595    0.4387 0
Si  Si  0.4319    0.2114    0.5283 0
Si  Si  0.3864    0.2447    0.5285 0
Si  Si  0.3861    0.3018    0.5286 0
Si  Si  0.4319    0.3352    0.5283 0
Si  Si  0.4318    0.3921    0.5283 0
Si  Si  0.3813    0.3416    0.7562 0
Si  Si  0.4377    0.3011    0.6595 0
Si  Si  0.3811    0.3412    0.6996 0
Si  Si  0.2438    0.3409    0.5619 0
Si  Si  0.6587    0.8811    0.6184 0
Si  Si  0.4320    0.8464    0.5283 0
Si  Si  0.3874    0.8807    0.5286 0
Si  Si  0.5618    0.8809    0.3409 0
Si  Si  0.7052    0.1535    0.4379 0
Si  Si  0.7049    0.2106    0.3806 0
Si  Si  0.7046    0.1535    0.3809 0
Si  Si  0.5622    0.0291    0.2959 0
Si  Si  0.6191    0.9720    0.2967 0
Si  Si  0.7092    0.0289    0.7491 0
Si  Si  0.6524    0.0291    0.7493 0
Si  Si  0.4379    0.2107    0.7055 0
 O   O  0.0551    0.6365    0.5445 0
 O   O  0.0913    0.3341    0.4427 0
 O   O  0.0912    0.3785    0.6667 0
 O   O  0.0915    0.4670    0.6054 0
 O   O  0.4096    0.2285    0.5373 0
 O   O  0.3929    0.2733    0.5333 0
 O   O  0.4093    0.3182    0.5371 0
 O   O  0.4239    0.3637    0.5323 0
 O   O  0.4237    0.8180    0.5317 0
 O   O  0.4098    0.3484    0.7613 0
 O   O  0.2723    0.3332    0.6232 0
 O   O  0.3492    0.3052    0.5908 0
 O   O  0.4428    0.2726    0.6666 0
 O   O  0.4554    0.6374    0.2355 0
 O   O  0.4552    0.6379    0.3094 0
 O   O  0.4098    0.8636    0.5376 0
 O   O  0.1249    0.4106    0.6514 0
 O   O  0.4556    0.8728    0.3638 0
 O   O  0.7119    0.1487    0.4093 0
 O   O  0.6986    0.1822    0.4426 0
 O   O  0.6979    0.1821    0.3760 0
 O   O  0.7122    0.2154    0.4091 0
 O   O  0.5908    0.0338    0.2894 0
 O   O  0.3186    0.2272    0.3724 0
 O   O  0.3178    0.2273    0.4462 0
 O   O  0.4471    0.9550    0.6814 0
 O   O  0.3731    0.9552    0.6804 0
 O   O  0.4466    0.1369    0.3179 0
 O   O  0.3731    0.1374    0.3193 0
 O   O  0.6808    0.0340    0.7420 0
 O   O  0.2280    0.0460    0.3557 0
 O   O  0.7715    0.0464    0.2819 0
 O   O  0.7266    0.9639    0.3645 0
 O   O  0.0364    0.2734    0.4545 0
 O   O  0.1360    0.7190    0.2279 0
 O   O  0.2573    0.6817    0.1480 0
 O   O  0.2271    0.6450    0.1362 0
 O   O  0.8187    0.2425    0.7140 0
 O   O  0.0578    0.5903    0.6514 0
 O   O  0.0461    0.4628    0.5902 0
Si  Si  0.4720    0.9722    0.9317 0
Si  Si  0.5631    0.8823    0.8418 0
Si  Si  0.2904    0.7504    0.8468 0
Si  Si  0.5631    0.9720    0.1126 0
Si  Si  0.5630    0.1595    0.9387 0
Si  Si  0.9320    0.7114    0.0283 0
Si  Si  0.8864    0.7447    0.0285 0
Si  Si  0.8861    0.8019    0.0286 0
Si  Si  0.9319    0.8352    0.0283 0
Si  Si  0.9318    0.8921    0.0283 0
Si  Si  0.8813    0.8416    0.2562 0
Si  Si  0.9377    0.8011    0.1595 0
Si  Si  0.8811    0.8412    0.1995 0
Si  Si  0.7438    0.8409    0.0619 0
Si  Si  0.1587    0.3811    0.1184 0
Si  Si  0.9320    0.3464    0.0283 0
Si  Si  0.8874    0.3807    0.0286 0
Si  Si  0.0617    0.3809    0.8409 0
Si  Si  0.2052    0.6535    0.9379 0
Si  Si  0.2049    0.7106    0.8806 0
Si  Si  0.2046    0.6534    0.8808 0
Si  Si  0.0622    0.5291    0.7959 0
Si  Si  0.1191    0.4720    0.7967 0
Si  Si  0.2092    0.5289    0.2491 0
Si  Si  0.1525    0.5291    0.2493 0
Si  Si  0.9380    0.7107    0.2055 0
 O   O  0.5552    0.1365    0.0445 0
 O   O  0.5913    0.8341    0.9427 0
 O   O  0.5913    0.8785    0.1667 0
 O   O  0.5915    0.9670    0.1054 0
 O   O  0.9096    0.7285    0.0373 0
 O   O  0.8930    0.7733    0.0333 0
 O   O  0.9093    0.8182    0.0371 0
 O   O  0.9239    0.8636    0.0322 0
 O   O  0.9237    0.3180    0.0316 0
 O   O  0.9099    0.8484    0.2613 0
 O   O  0.7723    0.8333    0.1232 0
 O   O  0.8492    0.8053    0.0908 0
 O   O  0.9428    0.7726    0.1666 0
 O   O  0.9553    0.1374    0.7355 0
 O   O  0.9552    0.1379    0.8094 0
 O   O  0.9098    0.3636    0.0376 0
 O   O  0.6250    0.9106    0.1514 0
 O   O  0.9556    0.3728    0.8638 0
 O   O  0.2119    0.6487    0.9093 0
 O   O  0.1986    0.6822    0.9426 0
 O   O  0.1979    0.6821    0.8760 0
 O   O  0.2122    0.7154    0.9091 0
 O   O  0.0908    0.5337    0.7894 0
 O   O  0.8186    0.7271    0.8724 0
 O   O  0.8178    0.7272    0.9462 0
 O   O  0.9471    0.4550    0.1815 0
 O   O  0.8731    0.4552    0.1804 0
 O   O  0.9466    0.6369    0.8179 0
 O   O  0.8731    0.6374    0.8193 0
 O   O  0.1809    0.5340    0.2420 0
 O   O  0.7280    0.5460    0.8557 0
 O   O  0.2715    0.5464    0.7819 0
 O   O  0.2266    0.4639    0.8645 0
 O   O  0.5364    0.7733    0.9545 0
 O   O  0.6360    0.2190    0.7279 0
 O   O  0.7573    0.1817    0.6480 0
 O   O  0.7270    0.1450    0.6362 0
 O   O  0.3187    0.7425    0.2140 0
 O   O  0.5578    0.0903    0.1514 0
 O   O  0.5461    0.9628    0.0902 0
Si  Si  0.4719    0.4322    0.9718 0
Si  Si  0.3820    0.3423    0.0628 0
Si  Si  0.2500    0.3474    0.7902 0
Si  Si  0.4717    0.6131    0.0629 0
Si  Si  0.6593    0.4393    0.0628 0
Si  Si  0.2110    0.5289    0.4316 0
Si  Si  0.2444    0.5291    0.3862 0
Si  Si  0.3015    0.5292    0.3859 0
Si  Si  0.3349    0.5289    0.4316 0
Si  Si  0.3917    0.5289    0.4315 0
Si  Si  0.3413    0.7568    0.3811 0
Si  Si  0.3007    0.6601    0.4375 0
Si  Si  0.3409    0.7001    0.3809 0
Si  Si  0.3406    0.5625    0.2436 0
Si  Si  0.8808    0.6189    0.6585 0
Si  Si  0.8460    0.5289    0.4317 0
Si  Si  0.8804    0.5291    0.3871 0
Si  Si  0.8806    0.3414    0.5615 0
Si  Si  0.1532    0.4385    0.7049 0
Si  Si  0.2103    0.3812    0.7046 0
Si  Si  0.1532    0.3814    0.7043 0
Si  Si  0.0287    0.2965    0.5619 0
Si  Si  0.9717    0.2972    0.6189 0
Si  Si  0.0286    0.7497    0.7090 0
Si  Si  0.0287    0.7499    0.6522 0
Si  Si  0.2103    0.7060    0.4377 0
 O   O  0.6362    0.5451    0.0549 0
 O   O  0.3338    0.4434    0.0911 0
 O   O  0.3782    0.6672    0.0910 0
 O   O  0.4667    0.6059    0.0913 0
 O   O  0.2282    0.5379    0.4093 0
 O   O  0.2730    0.5339    0.3927 0
 O   O  0.3179    0.5378    0.4090 0
 O   O  0.3634    0.5329    0.4236 0
 O   O  0.8177    0.5323    0.4234 0
 O   O  0.3481    0.7619    0.4096 0
 O   O  0.3329    0.6238    0.2721 0
 O   O  0.3049    0.5914    0.3489 0
 O   O  0.2723    0.6672    0.4426 0
 O   O  0.6371    0.2360    0.4551 0
 O   O  0.6376    0.3100    0.4550 0
 O   O  0.8633    0.5382    0.4095 0
 O   O  0.4102    0.6519    0.1247 0
 O   O  0.8726    0.3643    0.4553 0
 O   O  0.1484    0.4099    0.7116 0
 O   O  0.1819    0.4432    0.6983 0
 O   O  0.1818    0.3765    0.6976 0
 O   O  0.2151    0.4096    0.7119 0
 O   O  0.0334    0.2900    0.5906 0
 O   O  0.2269    0.3729    0.3184 0
 O   O  0.2270    0.4468    0.3175 0
 O   O  0.9547    0.6820    0.4469 0
 O   O  0.9549    0.6810    0.3728 0
 O   O  0.1366    0.3184    0.4464 0
 O   O  0.1371    0.3199    0.3729 0
 O   O  0.0336    0.7425    0.6806 0
 O   O  0.0457    0.3563    0.2278 0
 O   O  0.0461    0.2824    0.7713 0
 O   O  0.9637    0.3651    0.7264 0
 O   O  0.2730    0.4551    0.0362 0
 O   O  0.7187    0.2285    0.1358 0
 O   O  0.6814    0.1485    0.2571 0
 O   O  0.6447    0.1368    0.2268 0
 O   O  0.2422    0.7146    0.8185 0
 O   O  0.5900    0.6519    0.0576 0
 O   O  0.4625    0.5907    0.0458 0
Si  Si  0.9719    0.9323    0.4718 0
Si  Si  0.8820    0.8423    0.5628 0
Si  Si  0.7500    0.8474    0.2902 0
Si  Si  0.9717    0.1131    0.5628 0
Si  Si  0.1593    0.9393    0.5627 0
Si  Si  0.7110    0.0289    0.9317 0
Si  Si  0.7444    0.0291    0.8862 0
Si  Si  0.8015    0.0292    0.8859 0
Si  Si  0.8349    0.0289    0.9316 0
Si  Si  0.8917    0.0289    0.9315 0
Si  Si  0.8413    0.2568    0.8811 0
Si  Si  0.8007    0.1601    0.9375 0
Si  Si  0.8409    0.2001    0.8809 0
Si  Si  0.8406    0.0624    0.7436 0
Si  Si  0.3808    0.1190    0.1585 0
Si  Si  0.3460    0.0289    0.9317 0
Si  Si  0.3804    0.0291    0.8871 0
Si  Si  0.3806    0.8414    0.0615 0
Si  Si  0.6532    0.9385    0.2049 0
Si  Si  0.7103    0.8812    0.2046 0
Si  Si  0.6532    0.8814    0.2043 0
Si  Si  0.5288    0.7965    0.0619 0
Si  Si  0.4717    0.7973    0.1189 0
Si  Si  0.5286    0.2497    0.2090 0
Si  Si  0.5287    0.2499    0.1522 0
Si  Si  0.7103    0.2060    0.9377 0
 O   O  0.1362    0.0451    0.5549 0
 O   O  0.8338    0.9434    0.5911 0
 O   O  0.8782    0.1672    0.5910 0
 O   O  0.9667    0.1059    0.5913 0
 O   O  0.7282    0.0379    0.9093 0
 O   O  0.7730    0.0339    0.8928 0
 O   O  0.8179    0.0378    0.9090 0
 O   O  0.8633    0.0328    0.9236 0
 O   O  0.3176    0.0322    0.9234 0
 O   O  0.8481    0.2619    0.9096 0
 O   O  0.8329    0.1238    0.7721 0
 O   O  0.8049    0.0914    0.8489 0
 O   O  0.7723    0.1672    0.9426 0
 O   O  0.1371    0.7359    0.9551 0
 O   O  0.1375    0.8100    0.9549 0
 O   O  0.3633    0.0382    0.9095 0
 O   O  0.9102    0.1519    0.6247 0
 O   O  0.3725    0.8643    0.9553 0
 O   O  0.6484    0.9099    0.2116 0
 O   O  0.6819    0.9432    0.1983 0
 O   O  0.6818    0.8766    0.1976 0
 O   O  0.7151    0.9096    0.2119 0
 O   O  0.5334    0.7900    0.0906 0
 O   O  0.7269    0.8729    0.8184 0
 O   O  0.7270    0.9468    0.8175 0
 O   O  0.4547    0.1820    0.9468 0
 O   O  0.4549    0.1809    0.8728 0
 O   O  0.6366    0.8184    0.9464 0
 O   O  0.6371    0.8198    0.8729 0
 O   O  0.5336    0.2426    0.1806 0
 O   O  0.5457    0.8563    0.7278 0
 O   O  0.5461    0.7824    0.2713 0
 O   O  0.4637    0.8651    0.2264 0
 O   O  0.7730    0.9551    0.5362 0
 O   O  0.2187    0.7284    0.6358 0
 O   O  0.1814    0.6485    0.7571 0
 O   O  0.1447    0.6368    0.7268 0
 O   O  0.7422    0.2146    0.3185 0
 O   O  0.0900    0.1518    0.5576 0
 O   O  0.9625    0.0907    0.5458 0
Si  Si  0.5286    0.4323    0.0282 0
Si  Si  0.6184    0.3423    0.9372 0
Si  Si  0.7504    0.3474    0.2098 0
Si  Si  0.5288    0.6131    0.9372 0
Si  Si  0.3412    0.4393    0.9373 0
Si  Si  0.7894    0.5289    0.5683 0
Si  Si  0.7561    0.5291    0.6138 0
Si  Si  0.6989    0.5292    0.6141 0
Si  Si  0.6655    0.5289    0.5684 0
Si  Si  0.6088    0.5289    0.5684 0
Si  Si  0.6592    0.7568    0.6189 0
Si  Si  0.6997    0.6600    0.5625 0
Si  Si  0.6595    0.7001    0.6191 0
Si  Si  0.6599    0.5624    0.7564 0
Si  Si  0.1197    0.6190    0.3415 0
Si  Si  0.1544    0.5289    0.5683 0
Si  Si  0.1201    0.5291    0.6128 0
Si  Si  0.1198    0.3414    0.4385 0
Si  Si  0.8472    0.4385    0.2951 0
Si  Si  0.7902    0.3812    0.2954 0
Si  Si  0.8473    0.3814    0.2957 0
Si  Si  0.9717    0.2965    0.4381 0
Si  Si  0.0288    0.2972    0.3811 0
Si  Si  0.9719    0.7497    0.2910 0
Si  Si  0.9718    0.7499    0.3478 0
Si  Si  0.7901    0.7060    0.5623 0
 O   O  0.3643    0.5451    0.9451 0
 O   O  0.6667    0.4434    0.9089 0
 O   O  0.6223    0.6672    0.9090 0
 O   O  0.5337    0.6059    0.9087 0
 O   O  0.7723    0.5379    0.5907 0
 O   O  0.7275    0.5339    0.6072 0
 O   O  0.6825    0.5377    0.5910 0
 O   O  0.6371    0.5329    0.5764 0
 O   O  0.1828    0.5323    0.5766 0
 O   O  0.6524    0.7619    0.5904 0
 O   O  0.6675    0.6238    0.7279 0
 O   O  0.6956    0.5913    0.6511 0
 O   O  0.7281    0.6672    0.5574 0
 O   O  0.3634    0.2360    0.5449 0
 O   O  0.3629    0.3100    0.5450 0
 O   O  0.1372    0.5382    0.5905 0
 O   O  0.5903    0.6519    0.8753 0
 O   O  0.1279    0.3643    0.5446 0
 O   O  0.8520    0.4099    0.2884 0
 O   O  0.8186    0.4432    0.3017 0
 O   O  0.8187    0.3765    0.3024 0
 O   O  0.7854    0.4096    0.2881 0
 O   O  0.9671    0.2900    0.4094 0
 O   O  0.7736    0.3729    0.6816 0
 O   O  0.7735    0.4468    0.6824 0
 O   O  0.0457    0.6820    0.5531 0
 O   O  0.0456    0.6809    0.6271 0
 O   O  0.8638    0.3184    0.5536 0
 O   O  0.8633    0.3199    0.6271 0
 O   O  0.9668    0.7426    0.3194 0
 O   O  0.9548    0.3563    0.7722 0
 O   O  0.9544    0.2824    0.2287 0
 O   O  0.0368    0.3651    0.2736 0
 O   O  0.7274    0.4551    0.9638 0
 O   O  0.2818    0.2284    0.8642 0
 O   O  0.3190    0.1485    0.7429 0
 O   O  0.3557    0.1368    0.7732 0
 O   O  0.7583    0.7146    0.1815 0
 O   O  0.4104    0.6518    0.9425 0
 O   O  0.5379    0.5907    0.9542 0
Si  Si  0.0286    0.9323    0.5282 0
Si  Si  0.1184    0.8424    0.4372 0
Si  Si  0.2504    0.8474    0.7098 0
Si  Si  0.0288    0.1131    0.4371 0
Si  Si  0.8412    0.9393    0.4373 0
Si  Si  0.2894    0.0289    0.0683 0
Si  Si  0.2561    0.0291    0.1138 0
Si  Si  0.1990    0.0292    0.1140 0
Si  Si  0.1656    0.0289    0.0684 0
Si  Si  0.1087    0.0289    0.0684 0
Si  Si  0.1592    0.2569    0.1189 0
Si  Si  0.1997    0.1601    0.0625 0
Si  Si  0.1595    0.2001    0.1191 0
Si  Si  0.1599    0.0624    0.2564 0
Si  Si  0.6196    0.1189    0.8415 0
Si  Si  0.6544    0.0289    0.0683 0
Si  Si  0.6201    0.0291    0.1128 0
Si  Si  0.6199    0.8414    0.9385 0
Si  Si  0.3472    0.9385    0.7951 0
Si  Si  0.2902    0.8812    0.7954 0
Si  Si  0.3473    0.8814    0.7957 0
Si  Si  0.4717    0.7965    0.9381 0
Si  Si  0.5287    0.7972    0.8811 0
Si  Si  0.4719    0.2497    0.7910 0
Si  Si  0.4717    0.2499    0.8478 0
Si  Si  0.2901    0.2060    0.0623 0
 O   O  0.8643    0.0451    0.4451 0
 O   O  0.1667    0.9434    0.4089 0
 O   O  0.1223    0.1672    0.4090 0
 O   O  0.0337    0.1059    0.4087 0
 O   O  0.2723    0.0379    0.0907 0
 O   O  0.2275    0.0339    0.1072 0
 O   O  0.1825    0.0377    0.0910 0
 O   O  0.1371    0.0329    0.0764 0
 O   O  0.6828    0.0323    0.0766 0
 O   O  0.1524    0.2619    0.0904 0
 O   O  0.1676    0.1238    0.2279 0
 O   O  0.1956    0.0914    0.1511 0
 O   O  0.2281    0.1672    0.0574 0
 O   O  0.8634    0.7360    0.0449 0
 O   O  0.8629    0.8100    0.0450 0
 O   O  0.6372    0.0382    0.0905 0
 O   O  0.0902    0.1519    0.3753 0
 O   O  0.6279    0.8643    0.0446 0
 O   O  0.3520    0.9099    0.7884 0
 O   O  0.3186    0.9432    0.8017 0
 O   O  0.3187    0.8765    0.8024 0
 O   O  0.2854    0.9096    0.7881 0
 O   O  0.4671    0.7900    0.9094 0
 O   O  0.2736    0.8729    0.1816 0
 O   O  0.2735    0.9468    0.1825 0
 O   O  0.5457    0.1820    0.0531 0
 O   O  0.5456    0.1810    0.1271 0
 O   O  0.3638    0.8184    0.0536 0
 O   O  0.3634    0.8199    0.1271 0
 O   O  0.4668    0.2425    0.8194 0
 O   O  0.4548    0.8563    0.2722 0
 O   O  0.4544    0.7824    0.7287 0
 O   O  0.5368    0.8651    0.7736 0
 O   O  0.2274    0.9551    0.4638 0
 O   O  0.7818    0.7284    0.3642 0
 O   O  0.8191    0.6485    0.2429 0
 O   O  0.8557    0.6368    0.2732 0
 O   O  0.2583    0.2146    0.6815 0
 O   O  0.9104    0.1518    0.4424 0
 O   O  0.0379    0.0907    0.4541 0
Si  Si  0.5286    0.5688    0.9718 0
Si  Si  0.6185    0.6587    0.0629 0
Si  Si  0.7504    0.6537    0.7902 0
Si  Si  0.5288    0.3880    0.0629 0
Si  Si  0.3412    0.5618    0.0628 0
Si  Si  0.7894    0.4722    0.4316 0
Si  Si  0.7561    0.4720    0.3862 0
Si  Si  0.6989    0.4719    0.3859 0
Si  Si  0.6655    0.4722    0.4316 0
Si  Si  0.6087    0.4722    0.4315 0
Si  Si  0.6592    0.2443    0.3811 0
Si  Si  0.6997    0.3410    0.4375 0
Si  Si  0.6595    0.3010    0.3809 0
Si  Si  0.6599    0.4386    0.2436 0
Si  Si  0.1196    0.3821    0.6585 0
Si  Si  0.1544    0.4722    0.4317 0
Si  Si  0.1201    0.4720    0.3871 0
Si  Si  0.1198    0.6597    0.5615 0
Si  Si  0.8472    0.5626    0.7049 0
Si  Si  0.7902    0.6199    0.7046 0
Si  Si  0.8473    0.6197    0.7043 0
Si  Si  0.9717    0.7046    0.5619 0
Si  Si  0.0287    0.7038    0.6189 0
Si  Si  0.9719    0.2514    0.7090 0
Si  Si  0.9718    0.2512    0.6522 0
Si  Si  0.7901    0.2950    0.4377 0
 O   O  0.3643    0.4560    0.0549 0
 O   O  0.6667    0.5577    0.0911 0
 O   O  0.6223    0.3339    0.0910 0
 O   O  0.5337    0.3952    0.0913 0
 O   O  0.7723    0.4632    0.4093 0
 O   O  0.7275    0.4672    0.3927 0
 O   O  0.6825    0.4633    0.4090 0
 O   O  0.6371    0.4682    0.4236 0
 O   O  0.1828    0.4688    0.4234 0
 O   O  0.6524    0.2392    0.4096 0
 O   O  0.6675    0.3773    0.2721 0
 O   O  0.6956    0.4097    0.3489 0
 O   O  0.7281    0.3339    0.4426 0
 O   O  0.3634    0.7651    0.4551 0
 O   O  0.3629    0.6911    0.4550 0
 O   O  0.1372    0.4629    0.4095 0
 O   O  0.5903    0.3492    0.1247 0
 O   O  0.1279    0.6368    0.4553 0
 O   O  0.8520    0.5912    0.7116 0
 O   O  0.8186    0.5579    0.6983 0
 O   O  0.8187    0.6245    0.6976 0
 O   O  0.7854    0.5915    0.7119 0
 O   O  0.9671    0.7111    0.5906 0
 O   O  0.7736    0.6282    0.3184 0
 O   O  0.7735    0.5543    0.3175 0
 O   O  0.0457    0.3191    0.4469 0
 O   O  0.0456    0.3202    0.3728 0
 O   O  0.8638    0.6827    0.4464 0
 O   O  0.8634    0.6812    0.3729 0
 O   O  0.9668    0.2585    0.6806 0
 O   O  0.9548    0.6448    0.2278 0
 O   O  0.9544    0.7186    0.7713 0
 O   O  0.0368    0.6360    0.7264 0
 O   O  0.7275    0.5460    0.0362 0
 O   O  0.2818    0.7727    0.1358 0
 O   O  0.3191    0.8526    0.2571 0
 O   O  0.3558    0.8643    0.2268 0
 O   O  0.7583    0.2865    0.8185 0
 O   O  0.4104    0.3492    0.0575 0
 O   O  0.5380    0.4104    0.0458 0
Si  Si  0.0286    0.0688    0.4718 0
Si  Si  0.1184    0.1588    0.5628 0
Si  Si  0.2504    0.1537    0.2902 0
Si  Si  0.0288    0.8880    0.5628 0
Si  Si  0.8412    0.0618    0.5627 0
Si  Si  0.2894    0.9722    0.9317 0
Si  Si  0.2561    0.9720    0.8862 0
Si  Si  0.1989    0.9719    0.8859 0
Si  Si  0.1655    0.9722    0.9316 0
Si  Si  0.1087    0.9722    0.9315 0
Si  Si  0.1592    0.7442    0.8811 0
Si  Si  0.1997    0.8410    0.9375 0
Si  Si  0.1595    0.8010    0.8809 0
Si  Si  0.1599    0.9386    0.7436 0
Si  Si  0.6197    0.8821    0.1585 0
Si  Si  0.6544    0.9722    0.9317 0
Si  Si  0.6201    0.9719    0.8871 0
Si  Si  0.6199    0.1597    0.0615 0
Si  Si  0.3473    0.0626    0.2049 0
Si  Si  0.2902    0.1199    0.2046 0
Si  Si  0.3473    0.1197    0.2043 0
Si  Si  0.4718    0.2046    0.0619 0
Si  Si  0.5288    0.2039    0.1189 0
Si  Si  0.4719    0.7514    0.2090 0
Si  Si  0.4718    0.7512    0.1522 0
Si  Si  0.2901    0.7950    0.9377 0
 O   O  0.8643    0.9560    0.5549 0
 O   O  0.1667    0.0577    0.5911 0
 O   O  0.1223    0.8338    0.5910 0
 O   O  0.0337    0.8952    0.5913 0
 O   O  0.2723    0.9632    0.9093 0
 O   O  0.2275    0.9672    0.8928 0
 O   O  0.1825    0.9633    0.9090 0
 O   O  0.1371    0.9682    0.9236 0
 O   O  0.6828    0.9688    0.9234 0
 O   O  0.1524    0.7392    0.9096 0
 O   O  0.1675    0.8773    0.7721 0
 O   O  0.1956    0.9097    0.8489 0
 O   O  0.2281    0.8339    0.9426 0
 O   O  0.8633    0.2651    0.9551 0
 O   O  0.8629    0.1911    0.9549 0
 O   O  0.6372    0.9629    0.9095 0
 O   O  0.0902    0.8492    0.6247 0
 O   O  0.6279    0.1368    0.9553 0
 O   O  0.3520    0.0912    0.2116 0
 O   O  0.3186    0.0579    0.1983 0
 O   O  0.3187    0.1245    0.1976 0
 O   O  0.2854    0.0915    0.2119 0
 O   O  0.4671    0.2111    0.0906 0
 O   O  0.2736    0.1282    0.8184 0
 O   O  0.2735    0.0543    0.8175 0
 O   O  0.5457    0.8191    0.9469 0
 O   O  0.5456    0.8201    0.8729 0
 O   O  0.3638    0.1827    0.9464 0
 O   O  0.3634    0.1812    0.8729 0
 O   O  0.4668    0.7586    0.1806 0
 O   O  0.4548    0.1448    0.7278 0
 O   O  0.4544    0.2187    0.2713 0
 O   O  0.5368    0.1360    0.2264 0
 O   O  0.2274    0.0460    0.5362 0
 O   O  0.7818    0.2727    0.6358 0
 O   O  0.8190    0.3526    0.7571 0
 O   O  0.8557    0.3643    0.7268 0
 O   O  0.2583    0.7865    0.3185 0
 O   O  0.9104    0.8492    0.5576 0
 O   O  0.0379    0.9104    0.5458 0
Si  Si  0.4719    0.5688    0.0282 0
Si  Si  0.3820    0.6587    0.9372 0
Si  Si  0.2500    0.6537    0.2098 0
Si  Si  0.4717    0.3879    0.9371 0
Si  Si  0.6593    0.5618    0.9373 0
Si  Si  0.2110    0.4722    0.5683 0
Si  Si  0.2444    0.4720    0.6138 0
Si  Si  0.3015    0.4719    0.6141 0
Si  Si  0.3349    0.4722    0.5684 0
Si  Si  0.3917    0.4722    0.5684 0
Si  Si  0.3413    0.2443    0.6189 0
Si  Si  0.3007    0.3410    0.5625 0
Si  Si  0.3409    0.3010    0.6191 0
Si  Si  0.3406    0.4386    0.7564 0
Si  Si  0.8808    0.3821    0.3415 0
Si  Si  0.8460    0.4722    0.5683 0
Si  Si  0.8804    0.4720    0.6128 0
Si  Si  0.8806    0.6597    0.4384 0
Si  Si  0.1532    0.5626    0.2951 0
Si  Si  0.2103    0.6199    0.2954 0
Si  Si  0.1532    0.6197    0.2957 0
Si  Si  0.0287    0.7046    0.4381 0
Si  Si  0.9717    0.7038    0.3811 0
Si  Si  0.0286    0.2514    0.2910 0
Si  Si  0.0287    0.2512    0.3478 0
Si  Si  0.2103    0.2951    0.5623 0
 O   O  0.6362    0.4560    0.9451 0
 O   O  0.3337    0.5577    0.9089 0
 O   O  0.3782    0.3339    0.9090 0
 O   O  0.4667    0.3952    0.9087 0
 O   O  0.2282    0.4632    0.5907 0
 O   O  0.2730    0.4672    0.6072 0
 O   O  0.3179    0.4633    0.5909 0
 O   O  0.3633    0.4682    0.5764 0
 O   O  0.8177    0.4688    0.5766 0
 O   O  0.3481    0.2392    0.5904 0
 O   O  0.3329    0.3773    0.7279 0
 O   O  0.3049    0.4097    0.6511 0
 O   O  0.2723    0.3339    0.5574 0
 O   O  0.6371    0.7651    0.5449 0
 O   O  0.6376    0.6911    0.5450 0
 O   O  0.8633    0.4629    0.5905 0
 O   O  0.4102    0.3492    0.8753 0
 O   O  0.8726    0.6368    0.5446 0
 O   O  0.1484    0.5913    0.2884 0
 O   O  0.1819    0.5579    0.3017 0
 O   O  0.1818    0.6246    0.3024 0
 O   O  0.2151    0.5915    0.2881 0
 O   O  0.0334    0.7111    0.4094 0
 O   O  0.2269    0.6282    0.6816 0
 O   O  0.2270    0.5543    0.6824 0
 O   O  0.9547    0.3191    0.5531 0
 O   O  0.9549    0.3201    0.6271 0
 O   O  0.1366    0.6827    0.5536 0
 O   O  0.1371    0.6812    0.6271 0
 O   O  0.0336    0.2585    0.3194 0
 O   O  0.0456    0.6448    0.7722 0
 O   O  0.0461    0.7187    0.2287 0
 O   O  0.9637    0.6360    0.2736 0
 O   O  0.2730    0.5460    0.9638 0
 O   O  0.7187    0.7726    0.8642 0
 O   O  0.6814    0.8526    0.7429 0
 O   O  0.6447    0.8643    0.7732 0
 O   O  0.2422    0.2865    0.1815 0
 O   O  0.5900    0.3492    0.9424 0
 O   O  0.4625    0.4104    0.9542 0
Si  Si  0.9719    0.0688    0.5282 0
Si  Si  0.8820    0.1588    0.4371 0
Si  Si  0.7500    0.1537    0.7098 0
Si  Si  0.9717    0.8880    0.4371 0
Si  Si  0.1593    0.0618    0.4372 0
Si  Si  0.7110    0.9722    0.0683 0
Si  Si  0.7444    0.9720    0.1138 0
Si  Si  0.8015    0.9719    0.1140 0
Si  Si  0.8349    0.9722    0.0684 0
Si  Si  0.8918    0.9722    0.0684 0
Si  Si  0.8413    0.7443    0.1189 0
Si  Si  0.8008    0.8410    0.0625 0
Si  Si  0.8410    0.8010    0.1191 0
Si  Si  0.8406    0.9386    0.2564 0
Si  Si  0.3808    0.8821    0.8415 0
Si  Si  0.3461    0.9722    0.0683 0
Si  Si  0.3804    0.9720    0.1128 0
Si  Si  0.3806    0.1597    0.9385 0
Si  Si  0.6532    0.0626    0.7951 0
Si  Si  0.7103    0.1199    0.7954 0
Si  Si  0.6532    0.1197    0.7957 0
Si  Si  0.5287    0.2046    0.9381 0
Si  Si  0.4717    0.2038    0.8811 0
Si  Si  0.5286    0.7514    0.7910 0
Si  Si  0.5287    0.7512    0.8478 0
Si  Si  0.7103    0.7951    0.0623 0
 O   O  0.1362    0.9560    0.4451 0
 O   O  0.8337    0.0577    0.4089 0
 O   O  0.8782    0.8339    0.4090 0
 O   O  0.9667    0.8952    0.4087 0
 O   O  0.7282    0.9632    0.0907 0
 O   O  0.7730    0.9673    0.1072 0
 O   O  0.8179    0.9634    0.0910 0
 O   O  0.8634    0.9683    0.0764 0
 O   O  0.3177    0.9688    0.0766 0
 O   O  0.8481    0.7392    0.0904 0
 O   O  0.8329    0.8773    0.2279 0
 O   O  0.8049    0.9098    0.1511 0
 O   O  0.7724    0.8339    0.0574 0
 O   O  0.1371    0.2651    0.0449 0
 O   O  0.1376    0.1911    0.0450 0
 O   O  0.3633    0.9629    0.0905 0
 O   O  0.9102    0.8492    0.3753 0
 O   O  0.3726    0.1368    0.0446 0
 O   O  0.6484    0.0912    0.7884 0
 O   O  0.6818    0.0579    0.8017 0
 O   O  0.6817    0.1245    0.8024 0
 O   O  0.7151    0.0915    0.7881 0
 O   O  0.5334    0.2111    0.9094 0
 O   O  0.7269    0.1282    0.1816 0
 O   O  0.7270    0.0543    0.1824 0
 O   O  0.4547    0.8191    0.0531 0
 O   O  0.4549    0.8202    0.1272 0
 O   O  0.6367    0.1827    0.0536 0
 O   O  0.6371    0.1812    0.1271 0
 O   O  0.5336    0.7585    0.8194 0
 O   O  0.5457    0.1448    0.2722 0
 O   O  0.5461    0.2187    0.7287 0
 O   O  0.4637    0.1360    0.7736 0
 O   O  0.7730    0.0460    0.4638 0
 O   O  0.2187    0.2727    0.3642 0
 O   O  0.1814    0.3526    0.2429 0
 O   O  0.1447    0.3643    0.2732 0
 O   O  0.7421    0.7865    0.6815 0
 O   O  0.0900    0.8492    0.4424 0
 O   O  0.9625    0.9104    0.4541 0
Si  Si  0.4319    0.0288    0.5283 0
Si  Si  0.3420    0.9377    0.6182 0
Si  Si  0.3470    0.2103    0.7501 0
Si  Si  0.6129    0.9377    0.5286 0
Si  Si  0.4389    0.9378    0.3410 0
Si  Si  0.5285    0.5688    0.7892 0
Si  Si  0.5288    0.6144    0.7559 0
Si  Si  0.5288    0.6146    0.6987 0
Si  Si  0.5286    0.5689    0.6653 0
Si  Si  0.5285    0.5690    0.6085 0
Si  Si  0.7565    0.6194    0.6590 0
Si  Si  0.6598    0.5630    0.6995 0
Si  Si  0.6998    0.6197    0.6593 0
Si  Si  0.5622    0.7570    0.6596 0
Si  Si  0.6187    0.3421    0.1194 0
Si  Si  0.5286    0.5688    0.1542 0
Si  Si  0.5288    0.6134    0.1198 0
Si  Si  0.3411    0.4391    0.1196 0
Si  Si  0.4381    0.2956    0.8470 0
Si  Si  0.3809    0.2959    0.7899 0
Si  Si  0.3810    0.2962    0.8470 0
Si  Si  0.2962    0.4386    0.9715 0
Si  Si  0.2969    0.3816    0.0285 0
Si  Si  0.7494    0.2915    0.9717 0
Si  Si  0.7496    0.3484    0.9715 0
Si  Si  0.7057    0.5628    0.7899 0
 O   O  0.5448    0.9457    0.3640 0
 O   O  0.4430    0.9094    0.6664 0
 O   O  0.6669    0.9095    0.6220 0
 O   O  0.6057    0.9092    0.5335 0
 O   O  0.5375    0.5912    0.7720 0
 O   O  0.5335    0.6078    0.7272 0
 O   O  0.5374    0.5915    0.6823 0
 O   O  0.5325    0.5769    0.6369 0
 O   O  0.5319    0.5771    0.1826 0
 O   O  0.7615    0.5909    0.6522 0
 O   O  0.6234    0.7285    0.6672 0
 O   O  0.5910    0.6516    0.6953 0
 O   O  0.6669    0.5579    0.7279 0
 O   O  0.2357    0.5454    0.3631 0
 O   O  0.3097    0.5456    0.3627 0
 O   O  0.5378    0.5910    0.1370 0
 O   O  0.6516    0.8758    0.5900 0
 O   O  0.3640    0.5452    0.1277 0
 O   O  0.4095    0.2889    0.8518 0
 O   O  0.4428    0.3022    0.8184 0
 O   O  0.3763    0.3030    0.8185 0
 O   O  0.4093    0.2886    0.7851 0
 O   O  0.2897    0.4100    0.9669 0
 O   O  0.3726    0.6821    0.7734 0
 O   O  0.4464    0.6830    0.7733 0
 O   O  0.6817    0.5536    0.0455 0
 O   O  0.6806    0.6278    0.0454 0
 O   O  0.3181    0.5541    0.8636 0
 O   O  0.3195    0.6277    0.8631 0
 O   O  0.7423    0.3199    0.9666 0
 O   O  0.3559    0.7727    0.9546 0
 O   O  0.2822    0.2292    0.9542 0
 O   O  0.3648    0.2742    0.0365 0
 O   O  0.4548    0.9643    0.7272 0
 O   O  0.2281    0.8648    0.2816 0
 O   O  0.1483    0.7434    0.3188 0
 O   O  0.1365    0.7737    0.3555 0
 O   O  0.7142    0.1821    0.7580 0
 O   O  0.6515    0.9431    0.4102 0
 O   O  0.5904    0.9547    0.5377 0
Si  Si  0.9320    0.5288    0.0283 0
Si  Si  0.8420    0.4377    0.1182 0
Si  Si  0.8471    0.7104    0.2501 0
Si  Si  0.1129    0.4377    0.0286 0
Si  Si  0.9389    0.4378    0.8410 0
Si  Si  0.0285    0.0688    0.2892 0
Si  Si  0.0287    0.1144    0.2558 0
Si  Si  0.0288    0.1146    0.1987 0
Si  Si  0.0286    0.0689    0.1653 0
Si  Si  0.0285    0.0690    0.1085 0
Si  Si  0.2565    0.1195    0.1590 0
Si  Si  0.1598    0.0630    0.1995 0
Si  Si  0.1998    0.1197    0.1593 0
Si  Si  0.0622    0.2570    0.1596 0
Si  Si  0.1186    0.8421    0.6194 0
Si  Si  0.0286    0.0688    0.6542 0
Si  Si  0.0288    0.1134    0.6198 0
Si  Si  0.8411    0.9391    0.6196 0
Si  Si  0.9382    0.7956    0.3470 0
Si  Si  0.8809    0.7959    0.2899 0
Si  Si  0.8811    0.7963    0.3470 0
Si  Si  0.7962    0.9387    0.4715 0
Si  Si  0.7970    0.8816    0.5285 0
Si  Si  0.2494    0.7915    0.4717 0
Si  Si  0.2496    0.8484    0.4715 0
Si  Si  0.2057    0.0628    0.2899 0
 O   O  0.0447    0.4457    0.8640 0
 O   O  0.9430    0.4095    0.1664 0
 O   O  0.1669    0.4096    0.1220 0
 O   O  0.1057    0.4093    0.0335 0
 O   O  0.0375    0.0912    0.2720 0
 O   O  0.0335    0.1078    0.2272 0
 O   O  0.0374    0.0915    0.1823 0
 O   O  0.0325    0.0769    0.1369 0
 O   O  0.0319    0.0771    0.6825 0
 O   O  0.2616    0.0909    0.1522 0
 O   O  0.1234    0.2285    0.1672 0
 O   O  0.0911    0.1516    0.1953 0
 O   O  0.1669    0.0579    0.2279 0
 O   O  0.7357    0.0454    0.8631 0
 O   O  0.8096    0.0456    0.8627 0
 O   O  0.0378    0.0910    0.6370 0
 O   O  0.1516    0.3758    0.0900 0
 O   O  0.8640    0.0452    0.6277 0
 O   O  0.9095    0.7889    0.3518 0
 O   O  0.9428    0.8022    0.3184 0
 O   O  0.8763    0.8030    0.3185 0
 O   O  0.9093    0.7886    0.2851 0
 O   O  0.7897    0.9100    0.4669 0
 O   O  0.8727    0.1821    0.2734 0
 O   O  0.9464    0.1830    0.2732 0
 O   O  0.1817    0.0536    0.5455 0
 O   O  0.1806    0.1277    0.5454 0
 O   O  0.8181    0.0541    0.3636 0
 O   O  0.8195    0.1277    0.3631 0
 O   O  0.2423    0.8199    0.4666 0
 O   O  0.8559    0.2727    0.4546 0
 O   O  0.7822    0.7292    0.4541 0
 O   O  0.8648    0.7742    0.5365 0
 O   O  0.9548    0.4643    0.2272 0
 O   O  0.7281    0.3648    0.7816 0
 O   O  0.6482    0.2434    0.8188 0
 O   O  0.6365    0.2737    0.8555 0
 O   O  0.2142    0.6821    0.2580 0
 O   O  0.1515    0.4430    0.9102 0
 O   O  0.0904    0.4547    0.0377 0
Si  Si  0.4320    0.9723    0.4717 0
Si  Si  0.3420    0.0634    0.3818 0
Si  Si  0.3471    0.7908    0.2498 0
Si  Si  0.6129    0.0634    0.4714 0
Si  Si  0.4389    0.0633    0.6590 0
Si  Si  0.5285    0.4323    0.2108 0
Si  Si  0.5288    0.3867    0.2442 0
Si  Si  0.5288    0.3865    0.3013 0
Si  Si  0.5286    0.4322    0.3347 0
Si  Si  0.5285    0.4321    0.3915 0
Si  Si  0.7565    0.3816    0.3410 0
Si  Si  0.6598    0.4381    0.3005 0
Si  Si  0.6998    0.3814    0.3407 0
Si  Si  0.5622    0.2441    0.3404 0
Si  Si  0.6186    0.6590    0.8806 0
Si  Si  0.5285    0.4323    0.8458 0
Si  Si  0.5288    0.3877    0.8801 0
Si  Si  0.3411    0.5620    0.8804 0
Si  Si  0.4381    0.7055    0.1530 0
Si  Si  0.3809    0.7052    0.2100 0
Si  Si  0.3811    0.7049    0.1530 0
Si  Si  0.2962    0.5624    0.0285 0
Si  Si  0.2969    0.6194    0.9715 0
Si  Si  0.7494    0.7096    0.0283 0
Si  Si  0.7496    0.6527    0.0285 0
Si  Si  0.7057    0.4383    0.2101 0
 O   O  0.5447    0.0554    0.6360 0
 O   O  0.4430    0.0916    0.3336 0
 O   O  0.6669    0.0915    0.3780 0
 O   O  0.6057    0.0918    0.4665 0
 O   O  0.5375    0.4099    0.2280 0
 O   O  0.5335    0.3933    0.2727 0
 O   O  0.5374    0.4096    0.3177 0
 O   O  0.5325    0.4242    0.3631 0
 O   O  0.5319    0.4239    0.8174 0
 O   O  0.7615    0.4102    0.3478 0
 O   O  0.6234    0.2726    0.3328 0
 O   O  0.5910    0.3495    0.3047 0
 O   O  0.6669    0.4432    0.2721 0
 O   O  0.2357    0.4557    0.6369 0
 O   O  0.3096    0.4555    0.6373 0
 O   O  0.5378    0.4101    0.8630 0
 O   O  0.6516    0.1253    0.4100 0
 O   O  0.3640    0.4559    0.8723 0
 O   O  0.4096    0.7122    0.1482 0
 O   O  0.4429    0.6989    0.1816 0
 O   O  0.3763    0.6982    0.1815 0
 O   O  0.4093    0.7125    0.2149 0
 O   O  0.2898    0.5911    0.0331 0
 O   O  0.3726    0.3190    0.2266 0
 O   O  0.4464    0.3181    0.2267 0
 O   O  0.6817    0.4475    0.9545 0
 O   O  0.6806    0.3733    0.9546 0
 O   O  0.3181    0.4470    0.1364 0
 O   O  0.3195    0.3734    0.1369 0
 O   O  0.7423    0.6812    0.0334 0
 O   O  0.3559    0.2284    0.0454 0
 O   O  0.2822    0.7719    0.0458 0
 O   O  0.3648    0.7269    0.9634 0
 O   O  0.4548    0.0368    0.2728 0
 O   O  0.2281    0.1363    0.7184 0
 O   O  0.1482    0.2577    0.6812 0
 O   O  0.1365    0.2274    0.6445 0
 O   O  0.7142    0.8190    0.2420 0
 O   O  0.6515    0.0581    0.5898 0
 O   O  0.5904    0.0464    0.4623 0
Si  Si  0.9319    0.4723    0.9717 0
Si  Si  0.8420    0.5633    0.8818 0
Si  Si  0.8470    0.2907    0.7499 0
Si  Si  0.1128    0.5634    0.9715 0
Si  Si  0.9389    0.5633    0.1590 0
Si  Si  0.0285    0.9322    0.7108 0
Si  Si  0.0288    0.8867    0.7442 0
Si  Si  0.0288    0.8864    0.8013 0
Si  Si  0.0286    0.9322    0.8347 0
Si  Si  0.0285    0.9321    0.8915 0
Si  Si  0.2565    0.8816    0.8410 0
Si  Si  0.1598    0.9381    0.8005 0
Si  Si  0.1998    0.8814    0.8407 0
Si  Si  0.0622    0.7441    0.8404 0
Si  Si  0.1186    0.1590    0.3806 0
Si  Si  0.0286    0.9323    0.3458 0
Si  Si  0.0288    0.8877    0.3802 0
Si  Si  0.8410    0.0620    0.3804 0
Si  Si  0.9381    0.2055    0.6530 0
Si  Si  0.8809    0.2052    0.7100 0
Si  Si  0.8811    0.2049    0.6530 0
Si  Si  0.7962    0.0624    0.5285 0
Si  Si  0.7970    0.1194    0.4715 0
Si  Si  0.2494    0.2096    0.5283 0
Si  Si  0.2496    0.1527    0.5285 0
Si  Si  0.2057    0.9383    0.7101 0
 O   O  0.0448    0.5554    0.1360 0
 O   O  0.9430    0.5916    0.8336 0
 O   O  0.1668    0.5915    0.8780 0
 O   O  0.1057    0.5918    0.9665 0
 O   O  0.0375    0.9099    0.7280 0
 O   O  0.0335    0.8933    0.7727 0
 O   O  0.0373    0.9096    0.8177 0
 O   O  0.0325    0.9242    0.8631 0
 O   O  0.0319    0.9240    0.3175 0
 O   O  0.2616    0.9102    0.8478 0
 O   O  0.1234    0.7726    0.8328 0
 O   O  0.0910    0.8495    0.8046 0
 O   O  0.1669    0.9432    0.7721 0
 O   O  0.7357    0.9557    0.1369 0
 O   O  0.8097    0.9555    0.1373 0
 O   O  0.0378    0.9101    0.3630 0
 O   O  0.1516    0.6253    0.9100 0
 O   O  0.8640    0.9559    0.3723 0
 O   O  0.9095    0.2122    0.6482 0
 O   O  0.9428    0.1989    0.6816 0
 O   O  0.8763    0.1981    0.6815 0
 O   O  0.9093    0.2125    0.7148 0
 O   O  0.7897    0.0911    0.5331 0
 O   O  0.8726    0.8189    0.7266 0
 O   O  0.9464    0.8181    0.7267 0
 O   O  0.1817    0.9475    0.4545 0
 O   O  0.1807    0.8733    0.4546 0
 O   O  0.8181    0.9470    0.6364 0
 O   O  0.8195    0.8734    0.6369 0
 O   O  0.2423    0.1812    0.5334 0
 O   O  0.8559    0.7283    0.5454 0
 O   O  0.7822    0.2718    0.5458 0
 O   O  0.8648    0.2269    0.4634 0
 O   O  0.9547    0.5368    0.7728 0
 O   O  0.7281    0.6363    0.2184 0
 O   O  0.6483    0.7577    0.1812 0
 O   O  0.6365    0.7274    0.1445 0
 O   O  0.2142    0.3190    0.7420 0
 O   O  0.1515    0.5581    0.0898 0
 O   O  0.0904    0.5464    0.9623 0
Si  Si  0.5685    0.0288    0.4717 0
Si  Si  0.6584    0.9378    0.3818 0
Si  Si  0.6534    0.2103    0.2498 0
Si  Si  0.3876    0.9377    0.4714 0
Si  Si  0.5615    0.9378    0.6590 0
Si  Si  0.4719    0.5689    0.2108 0
Si  Si  0.4717    0.6144    0.2442 0
Si  Si  0.4716    0.6147    0.3013 0
Si  Si  0.4719    0.5689    0.3347 0
Si  Si  0.4719    0.5690    0.3915 0
Si  Si  0.2440    0.6195    0.3410 0
Si  Si  0.3407    0.5631    0.3005 0
Si  Si  0.3007    0.6197    0.3407 0
Si  Si  0.4383    0.7570    0.3404 0
Si  Si  0.3818    0.3421    0.8806 0
Si  Si  0.4719    0.5688    0.8458 0
Si  Si  0.4717    0.6134    0.8802 0
Si  Si  0.6594    0.4390    0.8804 0
Si  Si  0.5623    0.2956    0.1530 0
Si  Si  0.6196    0.2959    0.2100 0
Si  Si  0.6194    0.2962    0.1529 0
Si  Si  0.7043    0.4387    0.0285 0
Si  Si  0.7035    0.3816    0.9715 0
Si  Si  0.2511    0.2915    0.0283 0
Si  Si  0.2509    0.3484    0.0285 0
Si  Si  0.2948    0.5628    0.2101 0
 O   O  0.4557    0.9457    0.6360 0
 O   O  0.5575    0.9095    0.3336 0
 O   O  0.3336    0.9095    0.3780 0
 O   O  0.3948    0.9092    0.4665 0
 O   O  0.4630    0.5912    0.2280 0
 O   O  0.4670    0.6078    0.2727 0
 O   O  0.4631    0.5915    0.3177 0
 O   O  0.4680    0.5769    0.3631 0
 O   O  0.4686    0.5771    0.8174 0
 O   O  0.2389    0.5909    0.3478 0
 O   O  0.3770    0.7285    0.3328 0
 O   O  0.4094    0.6516    0.3047 0
 O   O  0.3336    0.5579    0.2721 0
 O   O  0.7648    0.5454    0.6369 0
 O   O  0.6908    0.5456    0.6373 0
 O   O  0.4626    0.5910    0.8631 0
 O   O  0.3489    0.8758    0.4100 0
 O   O  0.6365    0.5452    0.8723 0
 O   O  0.5909    0.2889    0.1482 0
 O   O  0.5576    0.3022    0.1816 0
 O   O  0.6242    0.3030    0.1815 0
 O   O  0.5912    0.2886    0.2148 0
 O   O  0.7107    0.4100    0.0331 0
 O   O  0.6278    0.6821    0.2266 0
 O   O  0.5540    0.6830    0.2267 0
 O   O  0.3188    0.5536    0.9545 0
 O   O  0.3198    0.6277    0.9546 0
 O   O  0.6824    0.5541    0.1364 0
 O   O  0.6809    0.6277    0.1369 0
 O   O  0.2581    0.3199    0.0334 0
 O   O  0.6445    0.7728    0.0454 0
 O   O  0.7183    0.2293    0.0458 0
 O   O  0.6357    0.2742    0.9634 0
 O   O  0.5457    0.9643    0.2728 0
 O   O  0.7723    0.8647    0.7184 0
 O   O  0.8522    0.7434    0.6812 0
 O   O  0.8640    0.7737    0.6445 0
 O   O  0.2863    0.1821    0.2420 0
 O   O  0.3489    0.9430    0.5898 0
 O   O  0.4101    0.9547    0.4623 0
Si  Si  0.0685    0.5288    0.9717 0
Si  Si  0.1584    0.4377    0.8818 0
Si  Si  0.1534    0.7103    0.7499 0
Si  Si  0.8876    0.4377    0.9715 0
Si  Si  0.0616    0.4378    0.1590 0
Si  Si  0.9719    0.0688    0.7108 0
Si  Si  0.9717    0.1144    0.7442 0
Si  Si  0.9716    0.1146    0.8013 0
Si  Si  0.9719    0.0689    0.8347 0
Si  Si  0.9719    0.0690    0.8915 0
Si  Si  0.7440    0.1194    0.8410 0
Si  Si  0.8407    0.0630    0.8005 0
Si  Si  0.8006    0.1197    0.8407 0
Si  Si  0.9383    0.2570    0.8404 0
Si  Si  0.8818    0.8421    0.3806 0
Si  Si  0.9719    0.0688    0.3458 0
Si  Si  0.9717    0.1134    0.3802 0
Si  Si  0.1594    0.9391    0.3804 0
Si  Si  0.0623    0.7956    0.6530 0
Si  Si  0.1196    0.7959    0.7101 0
Si  Si  0.1194    0.7962    0.6530 0
Si  Si  0.2043    0.9386    0.5285 0
Si  Si  0.2035    0.8816    0.4715 0
Si  Si  0.7511    0.7915    0.5283 0
Si  Si  0.7509    0.8484    0.5285 0
Si  Si  0.7947    0.0628    0.7101 0
 O   O  0.9557    0.4457    0.1360 0
 O   O  0.0575    0.4095    0.8336 0
 O   O  0.8336    0.4095    0.8780 0
 O   O  0.8948    0.4092    0.9665 0
 O   O  0.9630    0.0912    0.7280 0
 O   O  0.9670    0.1078    0.7727 0
 O   O  0.9631    0.0915    0.8177 0
 O   O  0.9680    0.0769    0.8631 0
 O   O  0.9686    0.0771    0.3174 0
 O   O  0.7389    0.0909    0.8478 0
 O   O  0.8770    0.2285    0.8328 0
 O   O  0.9094    0.1516    0.8046 0
 O   O  0.8336    0.0579    0.7721 0
 O   O  0.2647    0.0454    0.1369 0
 O   O  0.1908    0.0456    0.1373 0
 O   O  0.9627    0.0910    0.3630 0
 O   O  0.8488    0.3758    0.9100 0
 O   O  0.1365    0.0452    0.3723 0
 O   O  0.0909    0.7889    0.6482 0
 O   O  0.0576    0.8022    0.6816 0
 O   O  0.1242    0.8029    0.6815 0
 O   O  0.0912    0.7885    0.7148 0
 O   O  0.2107    0.9100    0.5331 0
 O   O  0.1278    0.1821    0.7266 0
 O   O  0.0540    0.1830    0.7267 0
 O   O  0.8188    0.0536    0.4545 0
 O   O  0.8198    0.1277    0.4546 0
 O   O  0.1824    0.0541    0.6364 0
 O   O  0.1809    0.1277    0.6369 0
 O   O  0.7581    0.8199    0.5334 0
 O   O  0.1445    0.2728    0.5454 0
 O   O  0.2183    0.7292    0.5458 0
 O   O  0.1357    0.7742    0.4634 0
 O   O  0.0457    0.4643    0.7728 0
 O   O  0.2724    0.3648    0.2184 0
 O   O  0.3522    0.2434    0.1812 0
 O   O  0.3640    0.2737    0.1445 0
 O   O  0.7863    0.6820    0.7420 0
 O   O  0.8489    0.4430    0.0898 0
 O   O  0.9101    0.4547    0.9623 0
Si  Si  0.5685    0.9723    0.5283 0
Si  Si  0.6584    0.0634    0.6182 0
Si  Si  0.6534    0.7907    0.7501 0
Si  Si  0.3876    0.0634    0.5286 0
Si  Si  0.5615    0.0633    0.3410 0
Si  Si  0.4719    0.4322    0.7892 0
Si  Si  0.4717    0.3867    0.7558 0
Si  Si  0.4716    0.3865    0.6987 0
Si  Si  0.4719    0.4322    0.6653 0
Si  Si  0.4719    0.4321    0.6085 0
Si  Si  0.2440    0.3817    0.6590 0
Si  Si  0.3407    0.4381    0.6995 0
Si  Si  0.3007    0.3814    0.6593 0
Si  Si  0.4383    0.2441    0.6596 0
Si  Si  0.3819    0.6590    0.1194 0
Si  Si  0.4719    0.4323    0.1542 0
Si  Si  0.4717    0.3877    0.1198 0
Si  Si  0.6594    0.5621    0.1196 0
Si  Si  0.5623    0.7055    0.8470 0
Si  Si  0.6196    0.7052    0.7900 0
Si  Si  0.6194    0.7048    0.8471 0
Si  Si  0.7043    0.5624    0.9715 0
Si  Si  0.7035    0.6195    0.0285 0
Si  Si  0.2511    0.7096    0.9717 0
Si  Si  0.2509    0.6527    0.9715 0
Si  Si  0.2948    0.4383    0.7899 0
 O   O  0.4557    0.0554    0.3640 0
 O   O  0.5575    0.0916    0.6664 0
 O   O  0.3336    0.0915    0.6220 0
 O   O  0.3948    0.0918    0.5335 0
 O   O  0.4630    0.4099    0.7720 0
 O   O  0.4670    0.3933    0.7272 0
 O   O  0.4631    0.4096    0.6823 0
 O   O  0.4680    0.4242    0.6369 0
 O   O  0.4686    0.4240    0.1825 0
 O   O  0.2389    0.4102    0.6522 0
 O   O  0.3770    0.2726    0.6672 0
 O   O  0.4094    0.3495    0.6953 0
 O   O  0.3336    0.4432    0.7279 0
 O   O  0.7648    0.4557    0.3631 0
 O   O  0.6908    0.4555    0.3627 0
 O   O  0.4627    0.4101    0.1369 0
 O   O  0.3488    0.1253    0.5900 0
 O   O  0.6365    0.4559    0.1277 0
 O   O  0.5909    0.7122    0.8518 0
 O   O  0.5576    0.6988    0.8184 0
 O   O  0.6242    0.6981    0.8185 0
 O   O  0.5912    0.7125    0.7852 0
 O   O  0.7107    0.5911    0.9669 0
 O   O  0.6278    0.3190    0.7733 0
 O   O  0.5540    0.3181    0.7733 0
 O   O  0.3188    0.4475    0.0455 0
 O   O  0.3198    0.3733    0.0453 0
 O   O  0.6824    0.4470    0.8636 0
 O   O  0.6809    0.3734    0.8631 0
 O   O  0.2581    0.6812    0.9666 0
 O   O  0.6445    0.2283    0.9546 0
 O   O  0.7183    0.7718    0.9542 0
 O   O  0.6357    0.7269    0.0366 0
 O   O  0.5457    0.0368    0.7272 0
 O   O  0.7724    0.1363    0.2816 0
 O   O  0.8522    0.2577    0.3188 0
 O   O  0.8640    0.2274    0.3555 0
 O   O  0.2863    0.8190    0.7580 0
 O   O  0.3489    0.0581    0.4102 0
 O   O  0.4101    0.0464    0.5377 0
Si  Si  0.0685    0.4723    0.0283 0
Si  Si  0.1584    0.5634    0.1182 0
Si  Si  0.1534    0.2908    0.2501 0
Si  Si  0.8876    0.5634    0.0286 0
Si  Si  0.0615    0.5633    0.8410 0
Si  Si  0.9719    0.9323    0.2892 0
Si  Si  0.9717    0.8867    0.2558 0
Si  Si  0.9717    0.8865    0.1987 0
Si  Si  0.9719    0.9322    0.1653 0
Si  Si  0.9720    0.9321    0.1085 0
Si  Si  0.7440    0.8817    0.1590 0
Si  Si  0.8407    0.9381    0.1995 0
Si  Si  0.8007    0.8814    0.1593 0
Si  Si  0.9383    0.7441    0.1596 0
Si  Si  0.8818    0.1590    0.6194 0
Si  Si  0.9719    0.9323    0.6542 0
Si  Si  0.9717    0.8877    0.6198 0
Si  Si  0.1594    0.0620    0.6196 0
Si  Si  0.0623    0.2055    0.3470 0
Si  Si  0.1196    0.2052    0.2899 0
Si  Si  0.1194    0.2049    0.3470 0
Si  Si  0.2043    0.0625    0.4715 0
Si  Si  0.2035    0.1194    0.5285 0
Si  Si  0.7511    0.2096    0.4717 0
Si  Si  0.7509    0.1527    0.4715 0
Si  Si  0.7948    0.9383    0.2899 0
 O   O  0.9557    0.5554    0.8640 0
 O   O  0.0575    0.5917    0.1664 0
 O   O  0.8336    0.5916    0.1220 0
 O   O  0.8948    0.5919    0.0335 0
 O   O  0.9630    0.9099    0.2720 0
 O   O  0.9670    0.8933    0.2272 0
 O   O  0.9631    0.9096    0.1823 0
 O   O  0.9680    0.9242    0.1369 0
 O   O  0.9686    0.9240    0.6825 0
 O   O  0.7389    0.9102    0.1522 0
 O   O  0.8770    0.7726    0.1672 0
 O   O  0.9094    0.8495    0.1953 0
 O   O  0.8336    0.9432    0.2279 0
 O   O  0.2647    0.9557    0.8631 0
 O   O  0.1908    0.9555    0.8627 0
 O   O  0.9626    0.9101    0.6370 0
 O   O  0.8489    0.6253    0.0900 0
 O   O  0.1365    0.9559    0.6277 0
 O   O  0.0909    0.2122    0.3518 0
 O   O  0.0576    0.1989    0.3184 0
 O   O  0.1242    0.1981    0.3185 0
 O   O  0.0912    0.2125    0.2851 0
 O   O  0.2107    0.0911    0.4669 0
 O   O  0.1278    0.8190    0.2734 0
 O   O  0.0541    0.8181    0.2732 0
 O   O  0.8188    0.9475    0.5455 0
 O   O  0.8198    0.8733    0.5454 0
 O   O  0.1824    0.9470    0.3636 0
 O   O  0.1809    0.8734    0.3631 0
 O   O  0.7581    0.1812    0.4666 0
 O   O  0.1446    0.7284    0.4546 0
 O   O  0.2183    0.2719    0.4541 0
 O   O  0.1357    0.2269    0.5365 0
 O   O  0.0457    0.5368    0.2272 0
 O   O  0.2723    0.6363    0.7816 0
 O   O  0.3522    0.7577    0.8188 0
 O   O  0.3640    0.7274    0.8555 0
 O   O  0.7863    0.3190    0.2580 0
 O   O  0.8489    0.5580    0.9102 0
 O   O  0.9101    0.5464    0.0377 0
Si  Si  0.2504    0.0290    0.4717 0
Si  Si  0.7501    0.9720    0.4717 0
Si  Si  0.7501    0.0290    0.5283 0
Si  Si  0.2504    0.9720    0.5283 0
Si  Si  0.4719    0.2506    0.0284 0
Si  Si  0.4719    0.7504    0.9716 0
Si  Si  0.5286    0.7504    0.0285 0
Si  Si  0.5286    0.2506    0.9715 0
Si  Si  0.0287    0.4722    0.2501 0
Si  Si  0.9718    0.4722    0.7499 0
Si  Si  0.0287    0.5289    0.7499 0
Si  Si  0.9718    0.5289    0.2501 0
Si  Si  0.0286    0.2504    0.5285 0
Si  Si  0.9719    0.7507    0.5285 0
Si  Si  0.0286    0.7507    0.4715 0
Si  Si  0.9719    0.2504    0.4715 0
Si  Si  0.2501    0.4721    0.9717 0
Si  Si  0.7504    0.4721    0.0284 0
Si  Si  0.7504    0.5290    0.9717 0
Si  Si  0.2501    0.5290    0.0283 0
Si  Si  0.4718    0.0289    0.7501 0
Si  Si  0.4718    0.9722    0.2499 0
Si  Si  0.5287    0.0289    0.2499 0
Si  Si  0.5287    0.9721    0.7501 0
Si  Si  0.7503    0.9721    0.5285 0
Si  Si  0.2503    0.4722    0.0285 0
Si  Si  0.2502    0.0289    0.5285 0
Si  Si  0.2502    0.9721    0.4715 0
Si  Si  0.7503    0.0289    0.4715 0
Si  Si  0.5287    0.7506    0.9717 0
Si  Si  0.0287    0.2506    0.4717 0
Si  Si  0.5287    0.2505    0.0283 0
Si  Si  0.4718    0.2505    0.9716 0
Si  Si  0.4718    0.7506    0.0283 0
Si  Si  0.9719    0.5290    0.7501 0
Si  Si  0.4719    0.0291    0.2501 0
Si  Si  0.0286    0.5290    0.2499 0
Si  Si  0.9719    0.4721    0.2499 0
Si  Si  0.0286    0.4721    0.7501 0
Si  Si  0.9718    0.7505    0.4717 0
Si  Si  0.9718    0.2506    0.5283 0
Si  Si  0.0287    0.7505    0.5283 0
Si  Si  0.7502    0.5289    0.0285 0
Si  Si  0.2502    0.5289    0.9716 0
Si  Si  0.7502    0.4722    0.9716 0
Si  Si  0.5286    0.9721    0.2501 0
Si  Si  0.5286    0.0290    0.7499 0
Si  Si  0.4719    0.9720    0.7499 0
Si  Si  0.7503    0.8478    0.6527 0
Si  Si  0.2502    0.1533    0.6527 0
Si  Si  0.2502    0.8478    0.3473 0
Si  Si  0.7502    0.1533    0.3473 0
Si  Si  0.6530    0.7506    0.8472 0
Si  Si  0.6530    0.2505    0.1528 0
Si  Si  0.3475    0.2505    0.8472 0
Si  Si  0.3475    0.7506    0.1528 0
Si  Si  0.8474    0.6532    0.7501 0
Si  Si  0.1530    0.6532    0.2499 0
Si  Si  0.8475    0.3479    0.2499 0
Si  Si  0.1530    0.3479    0.7501 0
Si  Si  0.8475    0.7505    0.3472 0
Si  Si  0.1530    0.2506    0.3472 0
Si  Si  0.8475    0.2506    0.6528 0
Si  Si  0.1530    0.7505    0.6528 0
Si  Si  0.7502    0.6533    0.1527 0
Si  Si  0.2502    0.6533    0.8473 0
Si  Si  0.2503    0.3478    0.1527 0
Si  Si  0.7502    0.3478    0.8473 0
Si  Si  0.6530    0.8479    0.2501 0
Si  Si  0.6530    0.1532    0.7499 0
Si  Si  0.3474    0.8478    0.7499 0
Si  Si  0.3475    0.1532    0.2501 0
Si  Si  0.2503    0.1532    0.3472 0
Si  Si  0.7501    0.8479    0.3472 0
Si  Si  0.7501    0.1532    0.6528 0
Si  Si  0.2503    0.8479    0.6528 0
Si  Si  0.3474    0.2506    0.1527 0
Si  Si  0.3474    0.7504    0.8473 0
Si  Si  0.6530    0.7505    0.1527 0
Si  Si  0.6530    0.2506    0.8473 0
Si  Si  0.1529    0.3478    0.2500 0
Si  Si  0.8475    0.3478    0.7499 0
Si  Si  0.1529    0.6533    0.7500 0
Si  Si  0.8475    0.6533    0.2500 0
Si  Si  0.1530    0.2505    0.6527 0
Si  Si  0.8474    0.7506    0.6527 0
Si  Si  0.1530    0.7506    0.3473 0
Si  Si  0.8474    0.2505    0.3473 0
Si  Si  0.2501    0.3479    0.8472 0
Si  Si  0.7503    0.3479    0.1528 0
Si  Si  0.7503    0.6532    0.8472 0
Si  Si  0.2501    0.6532    0.1528 0
Si  Si  0.3475    0.1533    0.7500 0
Si  Si  0.3476    0.8478    0.2499 0
Si  Si  0.6529    0.1533    0.2499 0
Si  Si  0.6529    0.8478    0.7501 0
Si  Si  0.7905    0.7506    0.7099 0
Si  Si  0.2100    0.2505    0.7098 0
Si  Si  0.2100    0.7506    0.2902 0
Si  Si  0.7905    0.2505    0.2901 0
Si  Si  0.7101    0.7907    0.7500 0
Si  Si  0.7101    0.2103    0.2500 0
Si  Si  0.2904    0.2103    0.7500 0
Si  Si  0.2904    0.7908    0.2500 0
Si  Si  0.7503    0.7104    0.7903 0
Si  Si  0.2502    0.7104    0.2098 0
Si  Si  0.7503    0.2907    0.2098 0
Si  Si  0.2501    0.2907    0.7902 0
Si  Si  0.7502    0.7907    0.2902 0
Si  Si  0.2503    0.2104    0.2902 0
Si  Si  0.7501    0.2104    0.7097 0
Si  Si  0.2503    0.7907    0.7097 0
Si  Si  0.7904    0.7103    0.2500 0
Si  Si  0.2101    0.7103    0.7500 0
Si  Si  0.2101    0.2908    0.2500 0
Si  Si  0.7904    0.2908    0.7500 0
Si  Si  0.7100    0.7505    0.2099 0
Si  Si  0.7100    0.2506    0.7902 0
Si  Si  0.2905    0.7505    0.7902 0
Si  Si  0.2905    0.2506    0.2098 0
Si  Si  0.2101    0.2506    0.2902 0
Si  Si  0.7904    0.7505    0.2902 0
Si  Si  0.7904    0.2506    0.7097 0
Si  Si  0.2101    0.7505    0.7097 0
Si  Si  0.2905    0.2104    0.2500 0
Si  Si  0.2905    0.7907    0.7499 0
Si  Si  0.7100    0.7907    0.2500 0
Si  Si  0.7100    0.2104    0.7499 0
Si  Si  0.2502    0.2908    0.2098 0
Si  Si  0.7502    0.2908    0.7902 0
Si  Si  0.2502    0.7103    0.7902 0
Si  Si  0.7502    0.7103    0.2099 0
Si  Si  0.2502    0.2103    0.7098 0
Si  Si  0.7502    0.7907    0.7099 0
Si  Si  0.2502    0.7908    0.2902 0
Si  Si  0.7502    0.2103    0.2901 0
Si  Si  0.2100    0.2907    0.7501 0
Si  Si  0.7905    0.2907    0.2499 0
Si  Si  0.7905    0.7104    0.7501 0
Si  Si  0.2100    0.7104    0.2499 0
Si  Si  0.2904    0.2505    0.7902 0
Si  Si  0.2904    0.7506    0.2098 0
Si  Si  0.7101    0.2505    0.2098 0
Si  Si  0.7101    0.7506    0.7902 0
 O   O  0.6841    0.3166    0.5561 0
 O   O  0.8176    0.1832    0.1262 0
 O   O  0.6350    0.3658    0.2372 0
 O   O  0.5922    0.4085    0.4643 0
 O   O  0.1842    0.8166    0.0561 0
 O   O  0.3176    0.6832    0.6262 0
 O   O  0.1350    0.8658    0.7372 0
 O   O  0.0922    0.9085    0.9644 0
 O   O  0.3163    0.6845    0.5561 0
 O   O  0.1829    0.8179    0.1262 0
 O   O  0.3655    0.6353    0.2372 0
 O   O  0.4083    0.5925    0.4643 0
 O   O  0.8163    0.1845    0.0561 0
 O   O  0.6829    0.3179    0.6262 0
 O   O  0.8654    0.1353    0.7372 0
 O   O  0.9082    0.0926    0.9644 0
 O   O  0.3163    0.3166    0.4439 0
 O   O  0.1829    0.1832    0.8738 0
 O   O  0.3654    0.3658    0.7628 0
 O   O  0.4083    0.4085    0.5356 0
 O   O  0.8163    0.8166    0.9439 0
 O   O  0.6829    0.6832    0.3738 0
 O   O  0.8655    0.8658    0.2628 0
 O   O  0.9083    0.9086    0.0356 0
 O   O  0.6842    0.6845    0.4439 0
 O   O  0.8176    0.8179    0.8738 0
 O   O  0.6350    0.6353    0.7628 0
 O   O  0.5922    0.5925    0.5356 0
 O   O  0.1841    0.1845    0.9439 0
 O   O  0.3176    0.3179    0.3738 0
 O   O  0.1350    0.1353    0.2628 0
 O   O  0.0922    0.0925    0.0356 0
 O   O  0.5564    0.6845    0.3161 0
 O   O  0.1264    0.8179    0.1826 0
 O   O  0.2374    0.6353    0.3652 0
 O   O  0.4646    0.5926    0.4080 0
 O   O  0.0563    0.1845    0.8161 0
 O   O  0.6264    0.3179    0.6826 0
 O   O  0.7374    0.1353    0.8652 0
 O   O  0.9646    0.0925    0.9080 0
 O   O  0.5563    0.3166    0.6839 0
 O   O  0.1264    0.1832    0.8174 0
 O   O  0.2374    0.3658    0.6348 0
 O   O  0.4646    0.4085    0.5920 0
 O   O  0.0564    0.8166    0.1839 0
 O   O  0.6264    0.6832    0.3174 0
 O   O  0.7374    0.8658    0.1348 0
 O   O  0.9646    0.9086    0.0920 0
 O   O  0.4441    0.3166    0.3161 0
 O   O  0.8741    0.1832    0.1826 0
 O   O  0.7631    0.3658    0.3652 0
 O   O  0.5359    0.4085    0.4080 0
 O   O  0.9441    0.8166    0.8161 0
 O   O  0.3741    0.6832    0.6826 0
 O   O  0.2631    0.8658    0.8652 0
 O   O  0.0359    0.9085    0.9080 0
 O   O  0.4441    0.6845    0.6839 0
 O   O  0.8741    0.8179    0.8174 0
 O   O  0.7631    0.6353    0.6348 0
 O   O  0.5359    0.5925    0.5920 0
 O   O  0.9441    0.1845    0.1839 0
 O   O  0.3741    0.3179    0.3174 0
 O   O  0.2631    0.1353    0.1348 0
 O   O  0.0359    0.0926    0.0920 0
 O   O  0.3163    0.5566    0.6839 0
 O   O  0.1829    0.1268    0.8174 0
 O   O  0.3655    0.2377    0.6348 0
 O   O  0.4082    0.4648    0.5920 0
 O   O  0.8163    0.0566    0.1839 0
 O   O  0.6829    0.6268    0.3173 0
 O   O  0.8655    0.7377    0.1348 0
 O   O  0.9083    0.9648    0.0920 0
 O   O  0.6842    0.5566    0.3161 0
 O   O  0.8176    0.1268    0.1827 0
 O   O  0.6350    0.2376    0.3652 0
 O   O  0.5922    0.4648    0.4080 0
 O   O  0.1841    0.0566    0.8161 0
 O   O  0.3176    0.6268    0.6826 0
 O   O  0.1350    0.7376    0.8652 0
 O   O  0.0922    0.9648    0.9080 0
 O   O  0.3163    0.4445    0.3161 0
 O   O  0.1829    0.8743    0.1827 0
 O   O  0.3655    0.7635    0.3652 0
 O   O  0.4082    0.5363    0.4080 0
 O   O  0.8163    0.9445    0.8161 0
 O   O  0.6829    0.3743    0.6826 0
 O   O  0.8655    0.2635    0.8652 0
 O   O  0.9082    0.0363    0.9080 0
 O   O  0.6842    0.4445    0.6839 0
 O   O  0.8176    0.8743    0.8174 0
 O   O  0.6350    0.7634    0.6348 0
 O   O  0.5922    0.5363    0.5920 0
 O   O  0.1842    0.9445    0.1839 0
 O   O  0.3176    0.3743    0.3173 0
 O   O  0.1350    0.2635    0.1348 0
 O   O  0.0922    0.0363    0.0920 0
 O   O  0.3165    0.6843    0.4439 0
 O   O  0.1830    0.8177    0.8738 0
 O   O  0.3653    0.6355    0.7628 0
 O   O  0.4084    0.5924    0.5356 0
 O   O  0.8165    0.1843    0.9439 0
 O   O  0.6831    0.3177    0.3738 0
 O   O  0.8652    0.1355    0.2628 0
 O   O  0.9084    0.0924    0.0356 0
 O   O  0.6839    0.3168    0.4439 0
 O   O  0.8174    0.1834    0.8738 0
 O   O  0.6352    0.3656    0.7628 0
 O   O  0.5921    0.4087    0.5356 0
 O   O  0.1839    0.8168    0.9439 0
 O   O  0.3174    0.6834    0.3738 0
 O   O  0.1352    0.8656    0.2628 0
 O   O  0.0921    0.9087    0.0356 0
 O   O  0.3165    0.3168    0.5561 0
 O   O  0.1830    0.1834    0.1262 0
 O   O  0.3653    0.3656    0.2371 0
 O   O  0.4084    0.4087    0.4644 0
 O   O  0.8165    0.8168    0.0561 0
 O   O  0.6831    0.6834    0.6262 0
 O   O  0.8652    0.8656    0.7371 0
 O   O  0.9084    0.9087    0.9644 0
 O   O  0.6839    0.6843    0.5561 0
 O   O  0.8174    0.8177    0.1262 0
 O   O  0.6352    0.6355    0.2372 0
 O   O  0.5921    0.5924    0.4644 0
 O   O  0.1840    0.1843    0.0561 0
 O   O  0.3174    0.3177    0.6262 0
 O   O  0.1352    0.1355    0.7371 0
 O   O  0.0920    0.0924    0.9644 0
 O   O  0.6840    0.5565    0.6837 0
 O   O  0.8174    0.1268    0.8172 0
 O   O  0.6352    0.2376    0.6350 0
 O   O  0.5921    0.4648    0.5918 0
 O   O  0.1840    0.0566    0.1837 0
 O   O  0.3174    0.6268    0.3172 0
 O   O  0.1352    0.7376    0.1350 0
 O   O  0.0921    0.9648    0.0918 0
 O   O  0.3165    0.5566    0.3163 0
 O   O  0.1831    0.1268    0.1828 0
 O   O  0.3653    0.2376    0.3650 0
 O   O  0.4084    0.4648    0.4082 0
 O   O  0.8165    0.0566    0.8163 0
 O   O  0.6831    0.6268    0.6828 0
 O   O  0.8653    0.7376    0.8650 0
 O   O  0.9084    0.9648    0.9082 0
 O   O  0.3165    0.4445    0.6837 0
 O   O  0.1830    0.8743    0.8172 0
 O   O  0.3653    0.7635    0.6350 0
 O   O  0.4084    0.5363    0.5918 0
 O   O  0.8165    0.9446    0.1837 0
 O   O  0.6831    0.3743    0.3172 0
 O   O  0.8653    0.2635    0.1350 0
 O   O  0.9084    0.0363    0.0918 0
 O   O  0.6840    0.4445    0.3163 0
 O   O  0.8174    0.8743    0.1828 0
 O   O  0.6352    0.7635    0.3650 0
 O   O  0.5921    0.5363    0.4082 0
 O   O  0.1840    0.9445    0.8163 0
 O   O  0.3174    0.3743    0.6828 0
 O   O  0.1352    0.2635    0.8650 0
 O   O  0.0920    0.0362    0.9082 0
 O   O  0.5563    0.3168    0.3163 0
 O   O  0.1265    0.1834    0.1828 0
 O   O  0.2374    0.3656    0.3650 0
 O   O  0.4646    0.4087    0.4082 0
 O   O  0.0563    0.8168    0.8163 0
 O   O  0.6265    0.6834    0.6828 0
 O   O  0.7374    0.8656    0.8650 0
 O   O  0.9646    0.9087    0.9082 0
 O   O  0.5563    0.6843    0.6837 0
 O   O  0.1264    0.8177    0.8172 0
 O   O  0.2374    0.6355    0.6350 0
 O   O  0.4646    0.5924    0.5918 0
 O   O  0.0563    0.1843    0.1837 0
 O   O  0.6265    0.3177    0.3172 0
 O   O  0.7374    0.1355    0.1350 0
 O   O  0.9646    0.0924    0.0918 0
 O   O  0.4441    0.3168    0.6837 0
 O   O  0.8740    0.1834    0.8172 0
 O   O  0.7631    0.3656    0.6350 0
 O   O  0.5359    0.4087    0.5918 0
 O   O  0.9442    0.8168    0.1837 0
 O   O  0.3740    0.6834    0.3172 0
 O   O  0.2631    0.8656    0.1350 0
 O   O  0.0359    0.9087    0.0918 0
 O   O  0.4442    0.6843    0.3163 0
 O   O  0.8740    0.8177    0.1828 0
 O   O  0.7631    0.6355    0.3650 0
 O   O  0.5359    0.5924    0.4082 0
 O   O  0.9441    0.1843    0.8163 0
 O   O  0.3740    0.3177    0.6828 0
 O   O  0.2631    0.1355    0.8650 0
 O   O  0.0359    0.0924    0.9082 0
 O   O  0.9658    0.2755    0.2749 0
 O   O  0.8537    0.2750    0.2745 0
 O   O  0.7830    0.4562    0.4557 0
 O   O  0.6723    0.4562    0.4556 0
 O   O  0.6014    0.4553    0.4548 0
 O   O  0.6924    0.3644    0.3639 0
 O   O  0.1482    0.4565    0.4559 0
 O   O  0.1262    0.6348    0.6342 0
 O   O  0.4657    0.7755    0.7749 0
 O   O  0.3537    0.7750    0.7745 0
 O   O  0.2830    0.9562    0.9556 0
 O   O  0.1723    0.9562    0.9556 0
 O   O  0.1013    0.9553    0.9548 0
 O   O  0.1924    0.8644    0.8639 0
 O   O  0.6481    0.9565    0.9559 0
 O   O  0.6262    0.1348    0.1342 0
 O   O  0.0347    0.7256    0.2749 0
 O   O  0.1468    0.7261    0.2745 0
 O   O  0.2175    0.5449    0.4557 0
 O   O  0.3282    0.5449    0.4556 0
 O   O  0.3991    0.5458    0.4548 0
 O   O  0.3081    0.6367    0.3639 0
 O   O  0.8523    0.5446    0.4559 0
 O   O  0.8742    0.3663    0.6342 0
 O   O  0.5347    0.2256    0.7749 0
 O   O  0.6468    0.2261    0.7744 0
 O   O  0.7174    0.0449    0.9556 0
 O   O  0.8282    0.0449    0.9556 0
 O   O  0.8991    0.0458    0.9548 0
 O   O  0.8081    0.1367    0.8639 0
 O   O  0.3523    0.0446    0.9559 0
 O   O  0.3743    0.8663    0.1342 0
 O   O  0.0347    0.2755    0.7251 0
 O   O  0.1467    0.2750    0.7255 0
 O   O  0.2175    0.4562    0.5443 0
 O   O  0.3282    0.4562    0.5444 0
 O   O  0.3991    0.4553    0.5452 0
 O   O  0.3081    0.3644    0.6361 0
 O   O  0.8523    0.4565    0.5441 0
 O   O  0.8743    0.6348    0.3658 0
 O   O  0.5347    0.7755    0.2251 0
 O   O  0.6468    0.7750    0.2255 0
 O   O  0.7175    0.9562    0.0443 0
 O   O  0.8282    0.9562    0.0443 0
 O   O  0.8991    0.9553    0.0452 0
 O   O  0.8081    0.8644    0.1361 0
 O   O  0.3523    0.9565    0.0441 0
 O   O  0.3743    0.1348    0.8658 0
 O   O  0.9657    0.7256    0.7251 0
 O   O  0.8537    0.7261    0.7256 0
 O   O  0.7830    0.5449    0.5443 0
 O   O  0.6723    0.5449    0.5444 0
 O   O  0.6014    0.5458    0.5452 0
 O   O  0.6924    0.6366    0.6361 0
 O   O  0.1481    0.5446    0.5441 0
 O   O  0.1262    0.3663    0.3658 0
 O   O  0.4657    0.2256    0.2251 0
 O   O  0.3537    0.2261    0.2255 0
 O   O  0.2830    0.0449    0.0443 0
 O   O  0.1723    0.0449    0.0443 0
 O   O  0.1013    0.0458    0.0452 0
 O   O  0.1924    0.1367    0.1361 0
 O   O  0.6482    0.0446    0.0441 0
 O   O  0.6262    0.8663    0.8658 0
 O   O  0.2752    0.9660    0.2749 0
 O   O  0.2747    0.8541    0.2745 0
 O   O  0.4559    0.7833    0.4557 0
 O   O  0.4559    0.6727    0.4556 0
 O   O  0.4550    0.6016    0.4548 0
 O   O  0.3641    0.6926    0.3639 0
 O   O  0.4562    0.1484    0.4559 0
 O   O  0.6344    0.1266    0.6342 0
 O   O  0.7752    0.4660    0.7749 0
 O   O  0.7747    0.3541    0.7744 0
 O   O  0.9559    0.2833    0.9557 0
 O   O  0.9559    0.1727    0.9556 0
 O   O  0.9550    0.1016    0.9548 0
 O   O  0.8641    0.1926    0.8639 0
 O   O  0.9562    0.6484    0.9559 0
 O   O  0.1345    0.6266    0.1342 0
 O   O  0.2752    0.0351    0.7251 0
 O   O  0.2747    0.1470    0.7255 0
 O   O  0.4559    0.2178    0.5443 0
 O   O  0.4559    0.3284    0.5444 0
 O   O  0.4550    0.3995    0.5452 0
 O   O  0.3641    0.3085    0.6361 0
 O   O  0.4562    0.8527    0.5441 0
 O   O  0.6344    0.8745    0.3658 0
 O   O  0.7752    0.5351    0.2251 0
 O   O  0.7747    0.6470    0.2255 0
 O   O  0.9559    0.7178    0.0443 0
 O   O  0.9559    0.8284    0.0443 0
 O   O  0.9550    0.8995    0.0452 0
 O   O  0.8641    0.8085    0.1361 0
 O   O  0.9562    0.3527    0.0441 0
 O   O  0.1344    0.3745    0.8657 0
 O   O  0.7253    0.0351    0.2749 0
 O   O  0.7258    0.1470    0.2744 0
 O   O  0.5445    0.2178    0.4557 0
 O   O  0.5446    0.3284    0.4556 0
 O   O  0.5454    0.3995    0.4548 0
 O   O  0.6363    0.3084    0.3639 0
 O   O  0.5443    0.8527    0.4559 0
 O   O  0.3660    0.8745    0.6342 0
 O   O  0.2253    0.5351    0.7749 0
 O   O  0.2258    0.6470    0.7745 0
 O   O  0.0445    0.7178    0.9557 0
 O   O  0.0446    0.8284    0.9556 0
 O   O  0.0454    0.8995    0.9548 0
 O   O  0.1363    0.8084    0.8639 0
 O   O  0.0443    0.3527    0.9559 0
 O   O  0.8660    0.3745    0.1342 0
 O   O  0.7253    0.9660    0.7251 0
 O   O  0.7258    0.8541    0.7256 0
 O   O  0.5446    0.7833    0.5443 0
 O   O  0.5446    0.6727    0.5444 0
 O   O  0.5455    0.6016    0.5452 0
 O   O  0.6364    0.6926    0.6361 0
 O   O  0.5443    0.1484    0.5441 0
 O   O  0.3660    0.1266    0.3658 0
 O   O  0.2253    0.4660    0.2251 0
 O   O  0.2258    0.3541    0.2255 0
 O   O  0.0446    0.2833    0.0443 0
 O   O  0.0446    0.1727    0.0443 0
 O   O  0.0454    0.1016    0.0452 0
 O   O  0.1364    0.1926    0.1361 0
 O   O  0.0443    0.6484    0.0441 0
 O   O  0.8660    0.6266    0.8658 0
 O   O  0.2751    0.2755    0.9655 0
 O   O  0.2747    0.2750    0.8535 0
 O   O  0.4559    0.4562    0.7828 0
 O   O  0.4559    0.4562    0.6720 0
 O   O  0.4550    0.4553    0.6011 0
 O   O  0.3641    0.3645    0.6921 0
 O   O  0.4561    0.4565    0.1479 0
 O   O  0.6345    0.6348    0.1260 0
 O   O  0.7752    0.7755    0.4655 0
 O   O  0.7747    0.7750    0.3535 0
 O   O  0.9559    0.9562    0.2828 0
 O   O  0.9559    0.9562    0.1720 0
 O   O  0.9550    0.9553    0.1011 0
 O   O  0.8641    0.8645    0.1921 0
 O   O  0.9562    0.9565    0.6479 0
 O   O  0.1345    0.1347    0.6260 0
 O   O  0.7253    0.2755    0.0345 0
 O   O  0.7258    0.2750    0.1465 0
 O   O  0.5446    0.4562    0.2172 0
 O   O  0.5446    0.4562    0.3279 0
 O   O  0.5455    0.4553    0.3989 0
 O   O  0.6364    0.3644    0.3079 0
 O   O  0.5443    0.4565    0.8521 0
 O   O  0.3660    0.6347    0.8740 0
 O   O  0.2253    0.7755    0.5345 0
 O   O  0.2258    0.7750    0.6465 0
 O   O  0.0446    0.9562    0.7172 0
 O   O  0.0446    0.9562    0.8279 0
 O   O  0.0454    0.9553    0.8989 0
 O   O  0.1364    0.8644    0.8079 0
 O   O  0.0443    0.9565    0.3521 0
 O   O  0.8660    0.1348    0.3740 0
 O   O  0.2752    0.7256    0.0345 0
 O   O  0.2747    0.7261    0.1465 0
 O   O  0.4559    0.5449    0.2172 0
 O   O  0.4559    0.5449    0.3280 0
 O   O  0.4550    0.5458    0.3989 0
 O   O  0.3641    0.6367    0.3079 0
 O   O  0.4561    0.5446    0.8521 0
 O   O  0.6345    0.3663    0.8740 0
 O   O  0.7751    0.2256    0.5345 0
 O   O  0.7747    0.2261    0.6465 0
 O   O  0.9559    0.0449    0.7172 0
 O   O  0.9559    0.0449    0.8279 0
 O   O  0.9550    0.0458    0.8989 0
 O   O  0.8641    0.1366    0.8079 0
 O   O  0.9562    0.0446    0.3521 0
 O   O  0.1345    0.8663    0.3740 0
 O   O  0.7253    0.7256    0.9655 0
 O   O  0.7258    0.7260    0.8535 0
 O   O  0.5446    0.5448    0.7828 0
 O   O  0.5446    0.5449    0.6720 0
 O   O  0.5455    0.5458    0.6011 0
 O   O  0.6364    0.6366    0.6922 0
 O   O  0.5443    0.5446    0.1479 0
 O   O  0.3660    0.3663    0.1260 0
 O   O  0.2253    0.2256    0.4655 0
 O   O  0.2258    0.2261    0.3535 0
 O   O  0.0446    0.0449    0.2828 0
 O   O  0.0446    0.0449    0.1720 0
 O   O  0.0455    0.0458    0.1011 0
 O   O  0.1364    0.1366    0.1921 0
 O   O  0.0443    0.0446    0.6479 0
 O   O  0.8660    0.8663    0.6260 0
 O   O  0.2754    0.9660    0.7248 0
 O   O  0.2745    0.8541    0.7258 0
 O   O  0.4562    0.7832    0.5441 0
 O   O  0.4557    0.6727    0.5446 0
 O   O  0.4552    0.6016    0.5450 0
 O   O  0.3643    0.6926    0.6359 0
 O   O  0.4565    0.1484    0.5438 0
 O   O  0.6347    0.1266    0.3655 0
 O   O  0.7754    0.4660    0.2248 0
 O   O  0.7745    0.3541    0.2257 0
 O   O  0.9562    0.2833    0.0441 0
 O   O  0.9557    0.1727    0.0446 0
 O   O  0.9552    0.1016    0.0450 0
 O   O  0.8643    0.1926    0.1359 0
 O   O  0.9565    0.6485    0.0438 0
 O   O  0.1347    0.6266    0.8655 0
 O   O  0.7250    0.0351    0.7248 0
 O   O  0.7260    0.1470    0.7258 0
 O   O  0.5443    0.2178    0.5441 0
 O   O  0.5448    0.3284    0.5446 0
 O   O  0.5453    0.3995    0.5450 0
 O   O  0.6361    0.3085    0.6359 0
 O   O  0.5440    0.8527    0.5438 0
 O   O  0.3658    0.8745    0.3655 0
 O   O  0.2251    0.5351    0.2248 0
 O   O  0.2260    0.6470    0.2257 0
 O   O  0.0443    0.7179    0.0441 0
 O   O  0.0448    0.8284    0.0446 0
 O   O  0.0453    0.8995    0.0450 0
 O   O  0.1362    0.8085    0.1359 0
 O   O  0.0440    0.3527    0.0438 0
 O   O  0.8658    0.3745    0.8655 0
 O   O  0.2754    0.0351    0.2752 0
 O   O  0.2745    0.1470    0.2742 0
 O   O  0.4562    0.2178    0.4559 0
 O   O  0.4557    0.3284    0.4554 0
 O   O  0.4552    0.3995    0.4549 0
 O   O  0.3643    0.3085    0.3640 0
 O   O  0.4565    0.8527    0.4562 0
 O   O  0.6347    0.8745    0.6345 0
 O   O  0.7754    0.5351    0.7752 0
 O   O  0.7745    0.6470    0.7743 0
 O   O  0.9562    0.7178    0.9559 0
 O   O  0.9557    0.8284    0.9554 0
 O   O  0.9552    0.8995    0.9549 0
 O   O  0.8643    0.8085    0.8641 0
 O   O  0.9565    0.3527    0.9562 0
 O   O  0.1347    0.3745    0.1345 0
 O   O  0.7250    0.9660    0.2752 0
 O   O  0.7260    0.8541    0.2742 0
 O   O  0.5443    0.7832    0.4559 0
 O   O  0.5448    0.6727    0.4554 0
 O   O  0.5453    0.6016    0.4550 0
 O   O  0.6362    0.6926    0.3640 0
 O   O  0.5440    0.1484    0.4562 0
 O   O  0.3658    0.1266    0.6345 0
 O   O  0.2250    0.4660    0.7752 0
 O   O  0.2260    0.3541    0.7742 0
 O   O  0.0443    0.2832    0.9559 0
 O   O  0.0448    0.1727    0.9554 0
 O   O  0.0452    0.1016    0.9549 0
 O   O  0.1361    0.1926    0.8641 0
 O   O  0.0440    0.6484    0.9562 0
 O   O  0.8658    0.6266    0.1345 0
 O   O  0.9658    0.2757    0.7248 0
 O   O  0.8537    0.2748    0.7258 0
 O   O  0.7830    0.4565    0.5441 0
 O   O  0.6723    0.4560    0.5446 0
 O   O  0.6013    0.4555    0.5450 0
 O   O  0.6923    0.3646    0.6359 0
 O   O  0.1482    0.4568    0.5438 0
 O   O  0.1262    0.6350    0.3655 0
 O   O  0.4658    0.7757    0.2248 0
 O   O  0.3538    0.7748    0.2257 0
 O   O  0.2830    0.9565    0.0440 0
 O   O  0.1723    0.9560    0.0445 0
 O   O  0.1013    0.9555    0.0450 0
 O   O  0.1923    0.8646    0.1359 0
 O   O  0.6482    0.9568    0.0438 0
 O   O  0.6262    0.1350    0.8655 0
 O   O  0.0347    0.2757    0.2752 0
 O   O  0.1467    0.2748    0.2742 0
 O   O  0.2175    0.4565    0.4559 0
 O   O  0.3282    0.4560    0.4554 0
 O   O  0.3992    0.4555    0.4549 0
 O   O  0.3081    0.3646    0.3640 0
 O   O  0.8523    0.4568    0.4562 0
 O   O  0.8742    0.6350    0.6345 0
 O   O  0.5347    0.7757    0.7752 0
 O   O  0.6467    0.7748    0.7743 0
 O   O  0.7175    0.9565    0.9559 0
 O   O  0.8281    0.9560    0.9554 0
 O   O  0.8992    0.9555    0.9549 0
 O   O  0.8081    0.8646    0.8641 0
 O   O  0.3523    0.9568    0.9562 0
 O   O  0.3743    0.1350    0.1345 0
 O   O  0.0347    0.7254    0.7248 0
 O   O  0.1467    0.7263    0.7258 0
 O   O  0.2175    0.5446    0.5441 0
 O   O  0.3282    0.5451    0.5446 0
 O   O  0.3992    0.5456    0.5450 0
 O   O  0.3081    0.6365    0.6360 0
 O   O  0.8523    0.5443    0.5438 0
 O   O  0.8743    0.3661    0.3655 0
 O   O  0.5347    0.2254    0.2248 0
 O   O  0.6467    0.2263    0.2257 0
 O   O  0.7175    0.0446    0.0440 0
 O   O  0.8282    0.0451    0.0445 0
 O   O  0.8992    0.0456    0.0450 0
 O   O  0.8081    0.1365    0.1359 0
 O   O  0.3523    0.0443    0.0437 0
 O   O  0.3743    0.8660    0.8655 0
 O   O  0.9658    0.7254    0.2752 0
 O   O  0.8537    0.7263    0.2742 0
 O   O  0.7830    0.5446    0.4559 0
 O   O  0.6723    0.5451    0.4554 0
 O   O  0.6013    0.5456    0.4549 0
 O   O  0.6923    0.6365    0.3640 0
 O   O  0.1482    0.5443    0.4562 0
 O   O  0.1262    0.3661    0.6345 0
 O   O  0.4657    0.2254    0.7752 0
 O   O  0.3537    0.2263    0.7742 0
 O   O  0.2830    0.0446    0.9559 0
 O   O  0.1723    0.0451    0.9554 0
 O   O  0.1013    0.0456    0.9549 0
 O   O  0.1923    0.1365    0.8640 0
 O   O  0.6482    0.0443    0.9562 0
 O   O  0.6262    0.8661    0.1345 0
 O   O  0.2754    0.2758    0.0344 0
 O   O  0.2745    0.2748    0.1465 0
 O   O  0.4561    0.4565    0.2172 0
 O   O  0.4557    0.4560    0.3279 0
 O   O  0.4552    0.4555    0.3989 0
 O   O  0.3643    0.3646    0.3079 0
 O   O  0.4564    0.4568    0.8520 0
 O   O  0.6347    0.6350    0.8740 0
 O   O  0.7754    0.7757    0.5344 0
 O   O  0.7745    0.7748    0.6465 0
 O   O  0.9562    0.9565    0.7172 0
 O   O  0.9557    0.9560    0.8279 0
 O   O  0.9552    0.9555    0.8989 0
 O   O  0.8643    0.8646    0.8079 0
 O   O  0.9565    0.9568    0.3520 0
 O   O  0.1347    0.1350    0.3740 0
 O   O  0.2754    0.7253    0.9656 0
 O   O  0.2745    0.7263    0.8535 0
 O   O  0.4561    0.5446    0.7828 0
 O   O  0.4557    0.5451    0.6721 0
 O   O  0.4552    0.5456    0.6011 0
 O   O  0.3643    0.6365    0.6921 0
 O   O  0.4565    0.5443    0.1480 0
 O   O  0.6348    0.3661    0.1260 0
 O   O  0.7754    0.2253    0.4655 0
 O   O  0.7745    0.2263    0.3535 0
 O   O  0.9562    0.0446    0.2828 0
 O   O  0.9557    0.0451    0.1721 0
 O   O  0.9552    0.0456    0.1011 0
 O   O  0.8643    0.1365    0.1921 0
 O   O  0.9564    0.0443    0.6480 0
 O   O  0.1347    0.8661    0.6260 0
 O   O  0.7250    0.2757    0.9656 0
 O   O  0.7260    0.2748    0.8535 0
 O   O  0.5443    0.4565    0.7828 0
 O   O  0.5448    0.4560    0.6721 0
 O   O  0.5453    0.4555    0.6011 0
 O   O  0.6362    0.3646    0.6921 0
 O   O  0.5440    0.4568    0.1480 0
 O   O  0.3657    0.6350    0.1260 0
 O   O  0.2251    0.7757    0.4655 0
 O   O  0.2260    0.7748    0.3535 0
 O   O  0.0443    0.9565    0.2828 0
 O   O  0.0448    0.9560    0.1721 0
 O   O  0.0453    0.9555    0.1011 0
 O   O  0.1362    0.8646    0.1921 0
 O   O  0.0440    0.9568    0.6480 0
 O   O  0.8657    0.1350    0.6260 0
 O   O  0.7251    0.7253    0.0345 0
 O   O  0.7260    0.7263    0.1465 0
 O   O  0.5443    0.5446    0.2172 0
 O   O  0.5448    0.5451    0.3279 0
 O   O  0.5453    0.5456    0.3989 0
 O   O  0.6362    0.6365    0.3079 0
 O   O  0.5440    0.5443    0.8520 0
 O   O  0.3657    0.3661    0.8740 0
 O   O  0.2251    0.2254    0.5344 0
 O   O  0.2260    0.2263    0.6465 0
 O   O  0.0443    0.0446    0.7172 0
 O   O  0.0448    0.0451    0.8279 0
 O   O  0.0452    0.0456    0.8989 0
 O   O  0.1361    0.1365    0.8079 0
 O   O  0.0440    0.0443    0.3520 0
 O   O  0.8657    0.8661    0.3740 0
 O   O  0.0001    0.5577    0.6965 0
 O   O  0.0003    0.6243    0.6959 0
 O   O  0.0003    0.6482    0.2435 0
 O   O  0.0002    0.7134    0.2422 0
 O   O  0.5001    0.0577    0.1965 0
 O   O  0.5003    0.1243    0.1959 0
 O   O  0.5003    0.1482    0.7435 0
 O   O  0.5001    0.2134    0.7422 0
 O   O  0.0003    0.4434    0.6965 0
 O   O  0.0002    0.3768    0.6959 0
 O   O  0.0002    0.3529    0.2435 0
 O   O  0.0003    0.2877    0.2422 0
 O   O  0.5003    0.9434    0.1965 0
 O   O  0.5002    0.8768    0.1959 0
 O   O  0.5001    0.8529    0.7435 0
 O   O  0.5003    0.7877    0.7422 0
 O   O  0.0003    0.5577    0.3035 0
 O   O  0.0002    0.6243    0.3040 0
 O   O  0.0002    0.6482    0.7565 0
 O   O  0.0003    0.7134    0.7578 0
 O   O  0.5003    0.0577    0.8035 0
 O   O  0.5001    0.1243    0.8041 0
 O   O  0.5002    0.1482    0.2565 0
 O   O  0.5003    0.2134    0.2578 0
 O   O  0.0002    0.4434    0.3035 0
 O   O  0.0003    0.3768    0.3040 0
 O   O  0.0003    0.3529    0.7565 0
 O   O  0.0002    0.2877    0.7578 0
 O   O  0.5001    0.9434    0.8035 0
 O   O  0.5003    0.8768    0.8041 0
 O   O  0.5003    0.8529    0.2565 0
 O   O  0.5002    0.7877    0.2578 0
 O   O  0.6967    0.0005    0.5572 0
 O   O  0.6962    0.0006    0.6237 0
 O   O  0.2438    0.0006    0.6477 0
 O   O  0.2425    0.0005    0.7128 0
 O   O  0.1968    0.5005    0.0572 0
 O   O  0.1962    0.5006    0.1237 0
 O   O  0.7438    0.5006    0.1477 0
 O   O  0.7425    0.5005    0.2128 0
 O   O  0.6967    0.0007    0.4428 0
 O   O  0.6962    0.0005    0.3763 0
 O   O  0.2438    0.0005    0.3523 0
 O   O  0.2425    0.0006    0.2872 0
 O   O  0.1967    0.5006    0.9428 0
 O   O  0.1962    0.5005    0.8763 0
 O   O  0.7438    0.5004    0.8523 0
 O   O  0.7425    0.5006    0.7872 0
 O   O  0.3037    0.0006    0.5572 0
 O   O  0.3042    0.0005    0.6237 0
 O   O  0.7567    0.0005    0.6477 0
 O   O  0.7580    0.0006    0.7128 0
 O   O  0.8037    0.5006    0.0572 0
 O   O  0.8043    0.5005    0.1237 0
 O   O  0.2567    0.5005    0.1477 0
 O   O  0.2580    0.5006    0.2128 0
 O   O  0.3037    0.0005    0.4428 0
 O   O  0.3042    0.0006    0.3763 0
 O   O  0.7567    0.0006    0.3523 0
 O   O  0.7580    0.0005    0.2872 0
 O   O  0.8037    0.5004    0.9428 0
 O   O  0.8042    0.5006    0.8763 0
 O   O  0.2567    0.5006    0.8523 0
 O   O  0.2580    0.5005    0.7872 0
 O   O  0.5574    0.6970    0.9999 0
 O   O  0.6239    0.6965    0.0001 0
 O   O  0.6480    0.2440    0.0001 0
 O   O  0.7131    0.2427    0.9999 0
 O   O  0.0574    0.1970    0.4999 0
 O   O  0.1239    0.1965    0.5001 0
 O   O  0.1480    0.7440    0.5001 0
 O   O  0.2131    0.7427    0.4999 0
 O   O  0.4431    0.6970    0.0001 0
 O   O  0.3765    0.6964    0.9999 0
 O   O  0.3525    0.2440    0.9999 0
 O   O  0.2874    0.2427    0.0001 0
 O   O  0.9431    0.1970    0.5001 0
 O   O  0.8766    0.1965    0.4999 0
 O   O  0.8525    0.7440    0.4999 0
 O   O  0.7874    0.7427    0.5001 0
 O   O  0.5574    0.3041    0.0001 0
 O   O  0.6239    0.3046    0.9999 0
 O   O  0.6479    0.7571    0.9999 0
 O   O  0.7131    0.7583    0.0001 0
 O   O  0.0574    0.8041    0.5001 0
 O   O  0.1239    0.8046    0.4999 0
 O   O  0.1479    0.2571    0.4999 0
 O   O  0.2131    0.2584    0.5001 0
 O   O  0.4430    0.3041    0.9999 0
 O   O  0.3766    0.3046    0.0001 0
 O   O  0.3525    0.7571    0.0001 0
 O   O  0.2874    0.7583    0.9999 0
 O   O  0.9431    0.8041    0.4999 0
 O   O  0.8766    0.8046    0.5001 0
 O   O  0.8525    0.2571    0.5001 0
 O   O  0.7874    0.2583    0.4999 0
 O   O  0.5574    0.0007    0.3034 0
 O   O  0.6239    0.0005    0.3040 0
 O   O  0.6479    0.0005    0.7565 0
 O   O  0.7130    0.0006    0.7578 0
 O   O  0.0574    0.5006    0.8034 0
 O   O  0.1239    0.5005    0.8040 0
 O   O  0.1479    0.5005    0.2565 0
 O   O  0.2130    0.5006    0.2578 0
 O   O  0.4431    0.0005    0.3034 0
 O   O  0.3766    0.0006    0.3040 0
 O   O  0.3525    0.0006    0.7565 0
 O   O  0.2874    0.0005    0.7578 0
 O   O  0.9431    0.5004    0.8034 0
 O   O  0.8766    0.5006    0.8040 0
 O   O  0.8525    0.5006    0.2565 0
 O   O  0.7874    0.5005    0.2578 0
 O   O  0.5574    0.0004    0.6965 0
 O   O  0.6239    0.0006    0.6960 0
 O   O  0.6479    0.0006    0.2435 0
 O   O  0.7130    0.0005    0.2422 0
 O   O  0.0574    0.5005    0.1965 0
 O   O  0.1239    0.5006    0.1960 0
 O   O  0.1479    0.5006    0.7435 0
 O   O  0.2130    0.5005    0.7422 0
 O   O  0.4430    0.0006    0.6965 0
 O   O  0.3765    0.0005    0.6960 0
 O   O  0.3525    0.0005    0.2435 0
 O   O  0.2874    0.0006    0.2422 0
 O   O  0.9431    0.5006    0.1966 0
 O   O  0.8766    0.5005    0.1960 0
 O   O  0.8525    0.5004    0.7435 0
 O   O  0.7874    0.5006    0.7422 0
 O   O  0.0003    0.6970    0.4428 0
 O   O  0.0002    0.6965    0.3763 0
 O   O  0.0002    0.2440    0.3523 0
 O   O  0.0003    0.2427    0.2872 0
 O   O  0.5003    0.1970    0.9428 0
 O   O  0.5001    0.1965    0.8763 0
 O   O  0.5001    0.7440    0.8523 0
 O   O  0.5003    0.7427    0.7872 0
 O   O  0.0001    0.6970    0.5572 0
 O   O  0.0003    0.6965    0.6237 0
 O   O  0.0003    0.2440    0.6477 0
 O   O  0.0002    0.2427    0.7128 0
 O   O  0.5001    0.1970    0.0572 0
 O   O  0.5003    0.1965    0.1237 0
 O   O  0.5003    0.7440    0.1477 0
 O   O  0.5002    0.7427    0.2128 0
 O   O  0.0001    0.3041    0.4428 0
 O   O  0.0003    0.3046    0.3763 0
 O   O  0.0003    0.7571    0.3523 0
 O   O  0.0002    0.7584    0.2872 0
 O   O  0.5001    0.8041    0.9428 0
 O   O  0.5003    0.8046    0.8763 0
 O   O  0.5003    0.2571    0.8523 0
 O   O  0.5001    0.2584    0.7872 0
 O   O  0.0003    0.3041    0.5572 0
 O   O  0.0002    0.3046    0.6237 0
 O   O  0.0002    0.7571    0.6477 0
 O   O  0.0003    0.7583    0.7128 0
 O   O  0.5003    0.8041    0.0572 0
 O   O  0.5002    0.8046    0.1237 0
 O   O  0.5002    0.2571    0.1477 0
 O   O  0.5003    0.2584    0.2128 0
 O   O  0.6967    0.5576    0.9999 0
 O   O  0.6962    0.6243    0.0001 0
 O   O  0.2437    0.6482    0.0001 0
 O   O  0.2424    0.7134    0.9999 0
 O   O  0.1967    0.0576    0.4999 0
 O   O  0.1962    0.1242    0.5001 0
 O   O  0.7437    0.1482    0.5001 0
 O   O  0.7424    0.2134    0.4999 0
 O   O  0.6967    0.4435    0.0001 0
 O   O  0.6962    0.3768    0.9999 0
 O   O  0.2436    0.3529    0.9999 0
 O   O  0.2424    0.2877    0.0001 0
 O   O  0.1967    0.9434    0.5001 0
 O   O  0.1962    0.8768    0.4999 0
 O   O  0.7437    0.8529    0.4999 0
 O   O  0.7424    0.7877    0.5001 0
 O   O  0.3038    0.5577    0.0001 0
 O   O  0.3043    0.6242    0.9999 0
 O   O  0.7568    0.6482    0.9999 0
 O   O  0.7581    0.7134    0.0001 0
 O   O  0.8037    0.0576    0.5001 0
 O   O  0.8043    0.1242    0.4999 0
 O   O  0.2568    0.1482    0.4999 0
 O   O  0.2581    0.2134    0.5001 0
 O   O  0.3037    0.4434    0.9999 0
 O   O  0.3043    0.3768    0.0001 0
 O   O  0.7568    0.3529    0.0001 0
 O   O  0.7581    0.2877    0.9999 0
 O   O  0.8038    0.9434    0.4999 0
 O   O  0.8043    0.8768    0.5001 0
 O   O  0.2568    0.8529    0.5001 0
 O   O  0.2581    0.7877    0.4999 0
 O   O  0.7425    0.0335    0.4999 0
 O   O  0.7611    0.6210    0.4999 0
 O   O  0.7836    0.4394    0.4999 0
 O   O  0.6939    0.3797    0.4999 0
 O   O  0.6710    0.4392    0.5000 0
 O   O  0.6040    0.4403    0.4999 0
 O   O  0.1484    0.4392    0.4999 0
 O   O  0.1247    0.3813    0.5001 0
 O   O  0.2425    0.5335    0.9999 0
 O   O  0.2610    0.1209    0.9999 0
 O   O  0.2836    0.9394    0.9999 0
 O   O  0.1939    0.8797    0.9999 0
 O   O  0.1710    0.9392    0.0001 0
 O   O  0.1040    0.9403    0.9999 0
 O   O  0.6484    0.9392    0.9999 0
 O   O  0.6248    0.8813    0.0001 0
 O   O  0.2580    0.9676    0.4999 0
 O   O  0.2394    0.3801    0.4999 0
 O   O  0.2168    0.5617    0.4999 0
 O   O  0.3065    0.6214    0.4999 0
 O   O  0.3295    0.5619    0.5001 0
 O   O  0.3965    0.5608    0.4999 0
 O   O  0.8520    0.5619    0.4999 0
 O   O  0.8757    0.6198    0.5001 0
 O   O  0.7580    0.4676    0.9999 0
 O   O  0.7394    0.8801    0.9999 0
 O   O  0.7168    0.0617    0.9999 0
 O   O  0.8065    0.1214    0.9999 0
 O   O  0.8295    0.0619    0.0001 0
 O   O  0.8965    0.0608    0.9999 0
 O   O  0.3520    0.0619    0.9999 0
 O   O  0.3757    0.1198    0.0001 0
 O   O  0.2580    0.0335    0.5001 0
 O   O  0.2394    0.6210    0.5001 0
 O   O  0.2168    0.4395    0.5001 0
 O   O  0.3065    0.3797    0.5000 0
 O   O  0.3295    0.4392    0.4999 0
 O   O  0.3965    0.4403    0.5000 0
 O   O  0.8520    0.4392    0.5001 0
 O   O  0.8757    0.3813    0.4999 0
 O   O  0.7580    0.5335    0.0001 0
 O   O  0.7394    0.1210    0.0001 0
 O   O  0.7169    0.9394    0.0001 0
 O   O  0.8065    0.8797    0.0001 0
 O   O  0.8295    0.9392    0.9999 0
 O   O  0.8965    0.9403    0.0000 0
 O   O  0.3521    0.9392    0.0001 0
 O   O  0.3757    0.8813    0.9999 0
 O   O  0.7425    0.9676    0.5001 0
 O   O  0.7610    0.3801    0.5000 0
 O   O  0.7836    0.5617    0.5001 0
 O   O  0.6939    0.6214    0.5000 0
 O   O  0.6710    0.5619    0.4999 0
 O   O  0.6040    0.5608    0.5000 0
 O   O  0.1484    0.5619    0.5001 0
 O   O  0.1247    0.6198    0.4999 0
 O   O  0.2425    0.4676    0.0001 0
 O   O  0.2611    0.8801    0.0001 0
 O   O  0.2836    0.0616    0.0001 0
 O   O  0.1940    0.1214    0.0000 0
 O   O  0.1709    0.0619    0.9999 0
 O   O  0.1040    0.0608    0.0000 0
 O   O  0.6484    0.0619    0.0001 0
 O   O  0.6247    0.1198    0.9999 0
 O   O  0.5002    0.7428    0.0329 0
 O   O  0.5002    0.7614    0.6204 0
 O   O  0.5001    0.7839    0.4389 0
 O   O  0.5002    0.6942    0.3791 0
 O   O  0.5003    0.6713    0.4386 0
 O   O  0.5002    0.6043    0.4398 0
 O   O  0.5001    0.1487    0.4386 0
 O   O  0.5003    0.1251    0.3808 0
 O   O  0.0002    0.2428    0.5329 0
 O   O  0.0002    0.2614    0.1204 0
 O   O  0.0001    0.2839    0.9389 0
 O   O  0.0002    0.1942    0.8791 0
 O   O  0.0003    0.1713    0.9386 0
 O   O  0.0002    0.1043    0.9398 0
 O   O  0.0001    0.6487    0.9386 0
 O   O  0.0003    0.6251    0.8808 0
 O   O  0.5001    0.2583    0.9671 0
 O   O  0.5002    0.2397    0.3796 0
 O   O  0.5001    0.2172    0.5611 0
 O   O  0.5002    0.3069    0.6209 0
 O   O  0.5003    0.3298    0.5614 0
 O   O  0.5002    0.3968    0.5602 0
 O   O  0.5001    0.8524    0.5614 0
 O   O  0.5003    0.8760    0.6192 0
 O   O  0.0002    0.7583    0.4671 0
 O   O  0.0002    0.7397    0.8796 0
 O   O  0.0002    0.7172    0.0611 0
 O   O  0.0002    0.8069    0.1209 0
 O   O  0.0003    0.8298    0.0614 0
 O   O  0.0002    0.8968    0.0602 0
 O   O  0.0002    0.3524    0.0614 0
 O   O  0.0003    0.3760    0.1192 0
 O   O  0.5003    0.2583    0.0329 0
 O   O  0.5003    0.2397    0.6204 0
 O   O  0.5003    0.2172    0.4389 0
 O   O  0.5003    0.3069    0.3791 0
 O   O  0.5002    0.3297    0.4386 0
 O   O  0.5003    0.3968    0.4398 0
 O   O  0.5003    0.8524    0.4386 0
 O   O  0.5002    0.8760    0.3808 0
 O   O  0.0003    0.7583    0.5329 0
 O   O  0.0003    0.7397    0.1204 0
 O   O  0.0003    0.7172    0.9389 0
 O   O  0.0003    0.8069    0.8791 0
 O   O  0.0002    0.8297    0.9386 0
 O   O  0.0003    0.8968    0.9398 0
 O   O  0.0003    0.3524    0.9386 0
 O   O  0.0002    0.3760    0.8808 0
 O   O  0.5003    0.7428    0.9671 0
 O   O  0.5003    0.7614    0.3796 0
 O   O  0.5003    0.7839    0.5611 0
 O   O  0.5003    0.6942    0.6209 0
 O   O  0.5002    0.6713    0.5614 0
 O   O  0.5003    0.6043    0.5602 0
 O   O  0.5003    0.1487    0.5614 0
 O   O  0.5001    0.1251    0.6192 0
 O   O  0.0003    0.2428    0.4671 0
 O   O  0.0003    0.2614    0.8796 0
 O   O  0.0003    0.2839    0.0611 0
 O   O  0.0003    0.1942    0.1208 0
 O   O  0.0002    0.1713    0.0614 0
 O   O  0.0003    0.1043    0.0602 0
 O   O  0.0003    0.6487    0.0614 0
 O   O  0.0002    0.6251    0.1192 0
 O   O  0.0331    0.5004    0.7423 0
 O   O  0.6206    0.5005    0.7608 0
 O   O  0.4390    0.5004    0.7834 0
 O   O  0.3794    0.5005    0.6937 0
 O   O  0.4388    0.5006    0.6707 0
 O   O  0.4399    0.5005    0.6038 0
 O   O  0.4388    0.5005    0.1482 0
 O   O  0.3811    0.5006    0.1245 0
 O   O  0.5331    0.0005    0.2423 0
 O   O  0.1206    0.0005    0.2608 0
 O   O  0.9390    0.0005    0.2834 0
 O   O  0.8794    0.0005    0.1937 0
 O   O  0.9388    0.0006    0.1707 0
 O   O  0.9399    0.0005    0.1037 0
 O   O  0.9388    0.0005    0.6482 0
 O   O  0.8810    0.0006    0.6245 0
 O   O  0.9674    0.5005    0.2577 0
 O   O  0.3799    0.5005    0.2392 0
 O   O  0.5614    0.5005    0.2166 0
 O   O  0.6210    0.5005    0.3063 0
 O   O  0.5617    0.5006    0.3292 0
 O   O  0.5605    0.5005    0.3962 0
 O   O  0.5617    0.5004    0.8518 0
 O   O  0.6194    0.5006    0.8755 0
 O   O  0.4673    0.0005    0.7577 0
 O   O  0.8799    0.0005    0.7392 0
 O   O  0.0614    0.0005    0.7166 0
 O   O  0.1210    0.0005    0.8063 0
 O   O  0.0617    0.0006    0.8293 0
 O   O  0.0605    0.0005    0.8962 0
 O   O  0.0617    0.0005    0.3518 0
 O   O  0.1194    0.0006    0.3755 0
 O   O  0.0331    0.5006    0.2577 0
 O   O  0.6206    0.5006    0.2392 0
 O   O  0.4390    0.5006    0.2166 0
 O   O  0.3794    0.5006    0.3063 0
 O   O  0.4388    0.5005    0.3292 0
 O   O  0.4399    0.5006    0.3962 0
 O   O  0.4388    0.5006    0.8518 0
 O   O  0.3810    0.5004    0.8755 0
 O   O  0.5331    0.0006    0.7577 0
 O   O  0.1206    0.0006    0.7392 0
 O   O  0.9390    0.0006    0.7166 0
 O   O  0.8794    0.0006    0.8063 0
 O   O  0.9388    0.0005    0.8293 0
 O   O  0.9399    0.0006    0.8962 0
 O   O  0.9388    0.0007    0.3518 0
 O   O  0.8811    0.0005    0.3755 0
 O   O  0.9673    0.5006    0.7423 0
 O   O  0.3799    0.5006    0.7608 0
 O   O  0.5614    0.5006    0.7834 0
 O   O  0.6210    0.5006    0.6937 0
 O   O  0.5617    0.5005    0.6707 0
 O   O  0.5605    0.5006    0.6038 0
 O   O  0.5617    0.5006    0.1482 0
 O   O  0.6194    0.5005    0.1245 0
 O   O  0.4673    0.0007    0.2423 0
 O   O  0.8799    0.0006    0.2608 0
 O   O  0.0614    0.0006    0.2834 0
 O   O  0.1210    0.0006    0.1937 0
 O   O  0.0617    0.0005    0.1707 0
 O   O  0.0605    0.0006    0.1037 0
 O   O  0.0617    0.0006    0.6482 0
 O   O  0.1194    0.0005    0.6245 0
 O   O  0.0331    0.7428    0.4999 0
 O   O  0.6207    0.7614    0.4999 0
 O   O  0.4391    0.7839    0.4999 0
 O   O  0.3794    0.6942    0.5000 0
 O   O  0.4389    0.6713    0.5001 0
 O   O  0.4400    0.6043    0.4999 0
 O   O  0.4389    0.1487    0.4999 0
 O   O  0.3810    0.1251    0.5001 0
 O   O  0.5331    0.2428    0.9999 0
 O   O  0.1206    0.2614    0.9999 0
 O   O  0.9391    0.2839    0.9999 0
 O   O  0.8793    0.1942    0.9999 0
 O   O  0.9389    0.1713    0.0001 0
 O   O  0.9400    0.1043    0.9999 0
 O   O  0.9389    0.6487    0.9999 0
 O   O  0.8810    0.6251    0.0001 0
 O   O  0.9673    0.2582    0.4999 0
 O   O  0.3798    0.2397    0.4999 0
 O   O  0.5613    0.2172    0.4999 0
 O   O  0.6211    0.3069    0.4999 0
 O   O  0.5616    0.3298    0.5000 0
 O   O  0.5604    0.3968    0.4999 0
 O   O  0.5615    0.8524    0.4999 0
 O   O  0.6195    0.8760    0.5001 0
 O   O  0.4673    0.7582    0.9999 0
 O   O  0.8798    0.7397    0.9999 0
 O   O  0.0613    0.7172    0.9999 0
 O   O  0.1211    0.8069    0.9999 0
 O   O  0.0616    0.8298    0.0001 0
 O   O  0.0604    0.8968    0.9999 0
 O   O  0.0615    0.3524    0.9999 0
 O   O  0.1195    0.3760    0.0001 0
 O   O  0.0331    0.2582    0.5001 0
 O   O  0.6207    0.2397    0.5000 0
 O   O  0.4391    0.2172    0.5001 0
 O   O  0.3794    0.3069    0.5000 0
 O   O  0.4389    0.3297    0.4999 0
 O   O  0.4400    0.3968    0.5000 0
 O   O  0.4389    0.8524    0.5001 0
 O   O  0.3810    0.8760    0.4999 0
 O   O  0.5332    0.7583    0.0001 0
 O   O  0.1207    0.7397    0.0001 0
 O   O  0.9392    0.7172    0.0001 0
 O   O  0.8794    0.8069    0.0001 0
 O   O  0.9389    0.8297    0.9999 0
 O   O  0.9400    0.8968    0.0001 0
 O   O  0.9389    0.3524    0.0001 0
 O   O  0.8810    0.3760    0.9999 0
 O   O  0.9673    0.7428    0.5001 0
 O   O  0.3798    0.7614    0.5001 0
 O   O  0.5613    0.7839    0.5001 0
 O   O  0.6211    0.6942    0.5000 0
 O   O  0.5616    0.6713    0.4999 0
 O   O  0.5605    0.6043    0.5000 0
 O   O  0.5615    0.1487    0.5001 0
 O   O  0.6194    0.1251    0.4999 0
 O   O  0.4673    0.2429    0.0001 0
 O   O  0.8798    0.2614    0.0001 0
 O   O  0.0613    0.2839    0.0001 0
 O   O  0.1211    0.1942    0.0000 0
 O   O  0.0616    0.1713    0.9999 0
 O   O  0.0605    0.1043    0.0001 0
 O   O  0.0616    0.6487    0.0001 0
 O   O  0.1194    0.6251    0.9999 0
 O   O  0.7426    0.5006    0.9671 0
 O   O  0.7611    0.5006    0.3796 0
 O   O  0.7836    0.5006    0.5612 0
 O   O  0.6939    0.5006    0.6208 0
 O   O  0.6710    0.5005    0.5614 0
 O   O  0.6040    0.5006    0.5603 0
 O   O  0.1484    0.5006    0.5614 0
 O   O  0.1247    0.5005    0.6191 0
 O   O  0.2426    0.0006    0.4671 0
 O   O  0.2610    0.0006    0.8796 0
 O   O  0.2836    0.0007    0.0612 0
 O   O  0.1940    0.0006    0.1208 0
 O   O  0.1710    0.0005    0.0614 0
 O   O  0.1040    0.0006    0.0603 0
 O   O  0.6484    0.0007    0.0614 0
 O   O  0.6248    0.0005    0.1191 0
 O   O  0.2579    0.5006    0.0329 0
 O   O  0.2394    0.5006    0.6203 0
 O   O  0.2168    0.5006    0.4388 0
 O   O  0.3065    0.5006    0.3792 0
 O   O  0.3295    0.5005    0.4385 0
 O   O  0.3965    0.5006    0.4397 0
 O   O  0.8520    0.5006    0.4386 0
 O   O  0.8757    0.5005    0.3808 0
 O   O  0.7578    0.0006    0.5329 0
 O   O  0.7394    0.0006    0.1203 0
 O   O  0.7168    0.0006    0.9388 0
 O   O  0.8065    0.0006    0.8792 0
 O   O  0.8295    0.0005    0.9386 0
 O   O  0.8965    0.0006    0.9397 0
 O   O  0.3520    0.0006    0.9386 0
 O   O  0.3757    0.0005    0.8808 0
 O   O  0.2578    0.5004    0.9671 0
 O   O  0.2394    0.5005    0.3796 0
 O   O  0.2168    0.5005    0.5612 0
 O   O  0.3065    0.5005    0.6208 0
 O   O  0.3295    0.5006    0.5614 0
 O   O  0.3965    0.5005    0.5603 0
 O   O  0.8520    0.5004    0.5614 0
 O   O  0.8757    0.5006    0.6191 0
 O   O  0.7579    0.0005    0.4671 0
 O   O  0.7394    0.0005    0.8796 0
 O   O  0.7168    0.0005    0.0612 0
 O   O  0.8065    0.0005    0.1208 0
 O   O  0.8295    0.0006    0.0614 0
 O   O  0.8965    0.0005    0.0603 0
 O   O  0.3520    0.0005    0.0614 0
 O   O  0.3757    0.0006    0.1191 0
 O   O  0.7426    0.5005    0.0329 0
 O   O  0.7611    0.5005    0.6203 0
 O   O  0.7836    0.5005    0.4388 0
 O   O  0.6939    0.5005    0.3792 0
 O   O  0.6710    0.5006    0.4385 0
 O   O  0.6040    0.5005    0.4397 0
 O   O  0.1484    0.5005    0.4386 0
 O   O  0.1247    0.5006    0.3808 0
 O   O  0.2426    0.0005    0.5329 0
 O   O  0.2611    0.0005    0.1203 0
 O   O  0.2836    0.0005    0.9388 0
 O   O  0.1939    0.0005    0.8792 0
 O   O  0.1709    0.0006    0.9386 0
 O   O  0.1040    0.0005    0.9397 0
 O   O  0.6484    0.0004    0.9386 0
 O   O  0.6247    0.0006    0.8808 0
 O   O  0.5003    0.0335    0.2577 0
 O   O  0.5003    0.6210    0.2392 0
 O   O  0.5003    0.4394    0.2166 0
 O   O  0.5003    0.3797    0.3063 0
 O   O  0.5002    0.4392    0.3293 0
 O   O  0.5003    0.4403    0.3962 0
 O   O  0.5003    0.4392    0.8518 0
 O   O  0.5001    0.3813    0.8755 0
 O   O  0.0003    0.5335    0.7577 0
 O   O  0.0003    0.1209    0.7392 0
 O   O  0.0003    0.9394    0.7166 0
 O   O  0.0003    0.8797    0.8063 0
 O   O  0.0002    0.9392    0.8293 0
 O   O  0.0003    0.9403    0.8962 0
 O   O  0.0003    0.9393    0.3518 0
 O   O  0.0002    0.8813    0.3755 0
 O   O  0.5003    0.9676    0.7423 0
 O   O  0.5003    0.3801    0.7608 0
 O   O  0.5003    0.5616    0.7834 0
 O   O  0.5003    0.6214    0.6937 0
 O   O  0.5002    0.5619    0.6707 0
 O   O  0.5003    0.5608    0.6037 0
 O   O  0.5003    0.5619    0.1482 0
 O   O  0.5002    0.6198    0.1245 0
 O   O  0.0003    0.4676    0.2423 0
 O   O  0.0003    0.8801    0.2608 0
 O   O  0.0003    0.0616    0.2834 0
 O   O  0.0003    0.1214    0.1937 0
 O   O  0.0002    0.0619    0.1707 0
 O   O  0.0003    0.0608    0.1037 0
 O   O  0.0003    0.0619    0.6482 0
 O   O  0.0002    0.1198    0.6245 0
 O   O  0.5001    0.0335    0.7423 0
 O   O  0.5002    0.6209    0.7608 0
 O   O  0.5001    0.4395    0.7834 0
 O   O  0.5002    0.3797    0.6937 0
 O   O  0.5003    0.4392    0.6707 0
 O   O  0.5002    0.4403    0.6037 0
 O   O  0.5001    0.4392    0.1482 0
 O   O  0.5003    0.3813    0.1245 0
 O   O  0.0002    0.5335    0.2423 0
 O   O  0.0002    0.1209    0.2608 0
 O   O  0.0002    0.9395    0.2834 0
 O   O  0.0002    0.8797    0.1937 0
 O   O  0.0003    0.9392    0.1707 0
 O   O  0.0002    0.9403    0.1037 0
 O   O  0.0001    0.9392    0.6482 0
 O   O  0.0003    0.8813    0.6245 0
 O   O  0.5002    0.9676    0.2577 0
 O   O  0.5002    0.3801    0.2392 0
 O   O  0.5001    0.5616    0.2166 0
 O   O  0.5002    0.6214    0.3063 0
 O   O  0.5003    0.5619    0.3293 0
 O   O  0.5002    0.5608    0.3962 0
 O   O  0.5001    0.5618    0.8518 0
 O   O  0.5003    0.6197    0.8755 0
 O   O  0.0001    0.4676    0.7577 0
 O   O  0.0002    0.8801    0.7392 0
 O   O  0.0001    0.0616    0.7166 0
 O   O  0.0002    0.1214    0.8063 0
 O   O  0.0003    0.0619    0.8293 0
 O   O  0.0002    0.0608    0.8962 0
 O   O  0.0002    0.0619    0.3518 0
 O   O  0.0003    0.1198    0.3755 0
 O   O  0.7173    0.2273    0.7733 0
 O   O  0.2173    0.7273    0.2733 0
 O   O  0.2832    0.7738    0.7733 0
 O   O  0.7832    0.2738    0.2733 0
 O   O  0.2832    0.2273    0.2267 0
 O   O  0.7832    0.7272    0.7267 0
 O   O  0.7173    0.7739    0.2267 0
 O   O  0.2173    0.2738    0.7267 0
 O   O  0.7735    0.7177    0.2267 0
 O   O  0.2735    0.2177    0.7267 0
 O   O  0.7735    0.2834    0.7733 0
 O   O  0.2735    0.7834    0.2733 0
 O   O  0.2270    0.2834    0.2267 0
 O   O  0.7269    0.7834    0.7267 0
 O   O  0.2269    0.7177    0.7733 0
 O   O  0.7269    0.2177    0.2733 0
 O   O  0.2270    0.7738    0.7171 0
 O   O  0.7270    0.2738    0.2171 0
 O   O  0.7735    0.7739    0.2829 0
 O   O  0.2735    0.2738    0.7829 0
 O   O  0.2270    0.2273    0.2829 0
 O   O  0.7270    0.7272    0.7829 0
 O   O  0.7735    0.2273    0.7171 0
 O   O  0.2735    0.7273    0.2171 0
 O   O  0.2268    0.7177    0.2265 0
 O   O  0.7268    0.2177    0.7265 0
 O   O  0.7737    0.2834    0.2265 0
 O   O  0.2737    0.7833    0.7265 0
 O   O  0.2267    0.2834    0.7735 0
 O   O  0.7268    0.7834    0.2735 0
 O   O  0.7737    0.7177    0.7735 0
 O   O  0.2737    0.2177    0.2735 0
 O   O  0.7174    0.7740    0.7735 0
 O   O  0.2174    0.2740    0.2735 0
 O   O  0.2831    0.7740    0.2265 0
 O   O  0.7831    0.2740    0.7265 0
 O   O  0.2831    0.2271    0.7734 0
 O   O  0.7831    0.7271    0.2735 0
 O   O  0.7174    0.2271    0.2265 0
 O   O  0.2173    0.7271    0.7266 0
 O   O  0.7737    0.2271    0.2828 0
 O   O  0.2737    0.7271    0.7829 0
 O   O  0.7737    0.7740    0.7171 0
 O   O  0.2737    0.2740    0.2171 0
 O   O  0.2268    0.2271    0.7171 0
 O   O  0.7268    0.7271    0.2171 0
 O   O  0.2268    0.7740    0.2829 0
 O   O  0.7268    0.2740    0.7829 0
 O   O  0.5772    0.0006    0.5317 0
 O   O  0.0772    0.5006    0.0316 0
 O   O  0.4233    0.0004    0.5317 0
 O   O  0.9233    0.5005    0.0316 0
 O   O  0.4233    0.0006    0.4683 0
 O   O  0.9233    0.5006    0.9684 0
 O   O  0.5772    0.0005    0.4683 0
 O   O  0.0772    0.5004    0.9684 0
 O   O  0.5319    0.5776    0.0001 0
 O   O  0.0319    0.0776    0.5001 0
 O   O  0.5319    0.4235    0.9999 0
 O   O  0.0319    0.9235    0.4999 0
 O   O  0.4686    0.4235    0.0001 0
 O   O  0.9686    0.9235    0.5001 0
 O   O  0.4686    0.5775    0.9999 0
 O   O  0.9686    0.0776    0.4999 0
 O   O  0.0003    0.5323    0.5770 0
 O   O  0.5003    0.0323    0.0770 0
 O   O  0.0001    0.5323    0.4230 0
 O   O  0.5001    0.0322    0.9230 0
 O   O  0.0003    0.4688    0.4230 0
 O   O  0.5003    0.9688    0.9230 0
 O   O  0.0001    0.4688    0.5770 0
 O   O  0.5002    0.9688    0.0770 0
 O   O  0.0001    0.5776    0.4683 0
 O   O  0.5001    0.0776    0.9683 0
 O   O  0.0003    0.4235    0.4683 0
 O   O  0.5003    0.9235    0.9683 0
 O   O  0.0001    0.4235    0.5317 0
 O   O  0.5002    0.9235    0.0317 0
 O   O  0.0003    0.5776    0.5317 0
 O   O  0.5003    0.0776    0.0316 0
 O   O  0.5773    0.5323    0.0001 0
 O   O  0.0773    0.0323    0.5001 0
 O   O  0.4232    0.5323    0.9999 0
 O   O  0.9232    0.0323    0.4999 0
 O   O  0.4232    0.4688    0.0001 0
 O   O  0.9232    0.9688    0.5001 0
 O   O  0.5773    0.4688    0.9999 0
 O   O  0.0773    0.9688    0.4999 0
 O   O  0.5319    0.0005    0.4230 0
 O   O  0.0319    0.5004    0.9230 0
 O   O  0.5319    0.0006    0.5770 0
 O   O  0.0319    0.5006    0.0770 0
 O   O  0.4686    0.0004    0.5770 0
 O   O  0.9686    0.5005    0.0770 0
 O   O  0.4686    0.0007    0.4230 0
 O   O  0.9686    0.5006    0.9230 0
 O   O  0.5001    0.9664    0.4386 0
 O   O  0.5001    0.0586    0.3812 0
 O   O  0.0001    0.4664    0.9386 0
 O   O  0.0002    0.5585    0.8812 0
 O   O  0.5003    0.0347    0.4386 0
 O   O  0.5003    0.9425    0.3812 0
 O   O  0.0003    0.5347    0.9386 0
 O   O  0.0003    0.4425    0.8812 0
 O   O  0.5003    0.9664    0.5614 0
 O   O  0.5003    0.0586    0.6188 0
 O   O  0.0004    0.4664    0.0614 0
 O   O  0.0003    0.5586    0.1188 0
 O   O  0.5001    0.0347    0.5614 0
 O   O  0.5001    0.9425    0.6188 0
 O   O  0.0002    0.5347    0.0614 0
 O   O  0.0002    0.4425    0.1188 0
 O   O  0.4387    0.5004    0.9659 0
 O   O  0.3815    0.5005    0.0581 0
 O   O  0.9387    0.0004    0.4659 0
 O   O  0.8815    0.0005    0.5581 0
 O   O  0.4387    0.5007    0.0341 0
 O   O  0.3815    0.5006    0.9419 0
 O   O  0.9387    0.0007    0.5341 0
 O   O  0.8815    0.0006    0.4419 0
 O   O  0.5617    0.5006    0.9659 0
 O   O  0.6190    0.5006    0.0581 0
 O   O  0.0617    0.0007    0.4659 0
 O   O  0.1190    0.0006    0.5581 0
 O   O  0.5617    0.5004    0.0341 0
 O   O  0.6190    0.5004    0.9419 0
 O   O  0.0617    0.0004    0.5341 0
 O   O  0.1190    0.0005    0.4419 0
 O   O  0.9661    0.4391    0.4999 0
 O   O  0.0583    0.3817    0.4999 0
 O   O  0.4661    0.9392    0.9999 0
 O   O  0.5583    0.8817    0.9999 0
 O   O  0.0343    0.4392    0.5001 0
 O   O  0.9422    0.3817    0.5001 0
 O   O  0.5344    0.9392    0.0001 0
 O   O  0.4422    0.8818    0.0001 0
 O   O  0.9661    0.5619    0.5001 0
 O   O  0.0583    0.6193    0.5001 0
 O   O  0.4661    0.0619    0.0001 0
 O   O  0.5583    0.1194    0.0001 0
 O   O  0.0343    0.5619    0.4999 0
 O   O  0.9422    0.6193    0.4999 0
 O   O  0.5343    0.0619    0.9999 0
 O   O  0.4421    0.1193    0.9999 0
 O   O  0.9661    0.5006    0.5615 0
 O   O  0.0583    0.5006    0.6187 0
 O   O  0.4661    0.0007    0.0614 0
 O   O  0.5583    0.0007    0.1187 0
 O   O  0.0343    0.5004    0.5615 0
 O   O  0.9422    0.5005    0.6187 0
 O   O  0.5344    0.0005    0.0614 0
 O   O  0.4422    0.0005    0.1187 0
 O   O  0.9661    0.5004    0.4385 0
 O   O  0.0583    0.5005    0.3813 0
 O   O  0.4661    0.0004    0.9385 0
 O   O  0.5583    0.0005    0.8812 0
 O   O  0.0343    0.5007    0.4385 0
 O   O  0.9422    0.5006    0.3813 0
 O   O  0.5343    0.0007    0.9385 0
 O   O  0.4421    0.0006    0.8812 0
 O   O  0.5003    0.4392    0.0341 0
 O   O  0.5003    0.3817    0.9419 0
 O   O  0.0003    0.9392    0.5341 0
 O   O  0.0003    0.8818    0.4419 0
 O   O  0.5001    0.4392    0.9659 0
 O   O  0.5002    0.3818    0.0581 0
 O   O  0.0001    0.9392    0.4659 0
 O   O  0.0002    0.8818    0.5581 0
 O   O  0.5001    0.5619    0.0341 0
 O   O  0.5001    0.6193    0.9419 0
 O   O  0.0001    0.0619    0.5341 0
 O   O  0.0002    0.1193    0.4419 0
 O   O  0.5003    0.5619    0.9659 0
 O   O  0.5003    0.6193    0.0581 0
 O   O  0.0003    0.0619    0.4659 0
 O   O  0.0003    0.1193    0.5581 0
 O   O  0.4389    0.9664    0.4999 0
 O   O  0.3814    0.0586    0.4999 0
 O   O  0.9389    0.4664    0.9999 0
 O   O  0.8814    0.5585    0.9999 0
 O   O  0.4389    0.0347    0.5001 0
 O   O  0.3814    0.9425    0.5001 0
 O   O  0.9389    0.5347    0.0001 0
 O   O  0.8814    0.4425    0.0001 0
 O   O  0.5616    0.9664    0.5001 0
 O   O  0.6190    0.0586    0.5001 0
 O   O  0.0616    0.4664    0.0001 0
 O   O  0.1190    0.5586    0.0001 0
 O   O  0.5616    0.0347    0.4999 0
 O   O  0.6190    0.9425    0.4999 0
 O   O  0.0616    0.5347    0.9999 0
 O   O  0.1190    0.4425    0.9999 0
 O   O  0.5442    0.0347    0.4560 0
 O   O  0.3665    0.0570    0.6337 0
 O   O  0.0442    0.5347    0.9560 0
 O   O  0.8666    0.5571    0.1337 0
 O   O  0.4563    0.9664    0.4560 0
 O   O  0.6339    0.9440    0.6337 0
 O   O  0.9563    0.4664    0.9560 0
 O   O  0.1339    0.4441    0.1337 0
 O   O  0.4563    0.0347    0.5440 0
 O   O  0.6339    0.0570    0.3663 0
 O   O  0.9563    0.5347    0.0440 0
 O   O  0.1339    0.5570    0.8663 0
 O   O  0.5442    0.9664    0.5440 0
 O   O  0.3666    0.9441    0.3663 0
 O   O  0.0442    0.4664    0.0440 0
 O   O  0.8666    0.4441    0.8663 0
 O   O  0.4563    0.5445    0.0341 0
 O   O  0.6340    0.3669    0.0566 0
 O   O  0.9562    0.0445    0.5341 0
 O   O  0.1340    0.8669    0.5566 0
 O   O  0.4562    0.4566    0.9659 0
 O   O  0.6339    0.6342    0.9434 0
 O   O  0.9562    0.9566    0.4659 0
 O   O  0.1340    0.1342    0.4434 0
 O   O  0.5442    0.4566    0.0341 0
 O   O  0.3665    0.6342    0.0566 0
 O   O  0.0442    0.9566    0.5341 0
 O   O  0.8665    0.1342    0.5566 0
 O   O  0.5442    0.5445    0.9659 0
 O   O  0.3665    0.3669    0.9434 0
 O   O  0.0442    0.0445    0.4659 0
 O   O  0.8665    0.8669    0.4434 0
 O   O  0.0343    0.4566    0.5440 0
 O   O  0.0568    0.6342    0.3663 0
 O   O  0.5344    0.9566    0.0440 0
 O   O  0.5568    0.1342    0.8663 0
 O   O  0.9661    0.4566    0.4560 0
 O   O  0.9437    0.6342    0.6337 0
 O   O  0.4661    0.9566    0.9560 0
 O   O  0.4437    0.1342    0.1337 0
 O   O  0.0343    0.5445    0.4560 0
 O   O  0.0568    0.3669    0.6337 0
 O   O  0.5343    0.0445    0.9560 0
 O   O  0.5568    0.8669    0.1337 0
 O   O  0.9661    0.5445    0.5440 0
 O   O  0.9437    0.3669    0.3663 0
 O   O  0.4661    0.0445    0.0440 0
 O   O  0.4437    0.8669    0.8663 0
 O   O  0.0343    0.5442    0.5436 0
 O   O  0.0567    0.3666    0.3660 0
 O   O  0.5343    0.0442    0.0436 0
 O   O  0.5567    0.8666    0.8660 0
 O   O  0.9662    0.4569    0.5436 0
 O   O  0.9437    0.6345    0.3660 0
 O   O  0.4662    0.9569    0.0436 0
 O   O  0.4437    0.1345    0.8660 0
 O   O  0.0343    0.4569    0.4563 0
 O   O  0.0567    0.6345    0.6340 0
 O   O  0.5343    0.9569    0.9564 0
 O   O  0.5568    0.1345    0.1339 0
 O   O  0.9662    0.5442    0.4563 0
 O   O  0.9437    0.3666    0.6340 0
 O   O  0.4661    0.0442    0.9563 0
 O   O  0.4437    0.8666    0.1339 0
 O   O  0.5439    0.4569    0.9659 0
 O   O  0.3662    0.6345    0.9435 0
 O   O  0.0439    0.9569    0.4659 0
 O   O  0.8662    0.1345    0.4435 0
 O   O  0.4566    0.4569    0.0341 0
 O   O  0.6342    0.6345    0.0565 0
 O   O  0.9566    0.9569    0.5341 0
 O   O  0.1342    0.1345    0.5565 0
 O   O  0.4566    0.5442    0.9659 0
 O   O  0.6342    0.3666    0.9435 0
 O   O  0.9566    0.0442    0.4659 0
 O   O  0.1342    0.8666    0.4435 0
 O   O  0.5439    0.5442    0.0341 0
 O   O  0.3663    0.3666    0.0565 0
 O   O  0.0439    0.0442    0.5341 0
 O   O  0.8662    0.8666    0.5565 0
 O   O  0.4566    0.0347    0.4564 0
 O   O  0.6341    0.0570    0.6340 0
 O   O  0.9566    0.5347    0.9564 0
 O   O  0.1342    0.5570    0.1340 0
 O   O  0.4566    0.9664    0.5436 0
 O   O  0.6342    0.9441    0.3660 0
 O   O  0.9566    0.4664    0.0436 0
 O   O  0.1341    0.4441    0.8660 0
 O   O  0.5438    0.0347    0.5436 0
 O   O  0.3663    0.0570    0.3660 0
 O   O  0.0439    0.5347    0.0436 0
 O   O  0.8663    0.5570    0.8660 0
 O   O  0.5439    0.9664    0.4563 0
 O   O  0.3663    0.9441    0.6340 0
 O   O  0.0439    0.4664    0.9564 0
 O   O  0.8663    0.4441    0.1340 0


